
 *******************************************************************************

         NASA-GLENN CHEMICAL EQUILIBRIUM PROGRAM CEA2, MAY 21, 2004
                   BY  BONNIE MCBRIDE AND SANFORD GORDON
      REFS: NASA RP-1311, PART I, 1994 AND NASA RP-1311, PART II, 1996

 *******************************************************************************



 problem rocket eq fr
     p(psi) = 20, 30, 40, 50
     o/f = 6.8, 7, 7.2, 7.4, 7.6, 7.8
     sup = 1, 1.2, 1.4, 1.6, 1.8, 2
 reac
     fuel = H2O(L) t(K) = 298.000
     ox = H2O2(L) t(K) = 298.000
 outp trans
 end

 OPTIONS: TP=F  HP=F  SP=F  TV=F  UV=F  SV=F  DETN=F  SHOCK=F  REFL=F  INCD=F
 RKT=T  FROZ=T  EQL=T  IONS=F  SIUNIT=T  DEBUGF=F  SHKDBG=F  DETDBG=F  TRNSPT=T

 TRACE= 0.00E+00  S/R= 0.000000E+00  H/R= 0.000000E+00  U/R= 0.000000E+00

 Pc,BAR =     1.378946     2.068419     2.757892     3.447365

 Pc/P =

 SUBSONIC AREA RATIOS =

 SUPERSONIC AREA RATIOS =     1.0000     1.2000     1.4000     1.6000     1.8000
     2.0000

 NFZ=  1  Mdot/Ac= 0.000000E+00  Ac/At= 0.000000E+00

 WARNING!!  AMOUNT MISSING FOR REACTANT  1.
 PROGRAM SETS WEIGHT PERCENT = 100. (REACT)

 WARNING!!  AMOUNT MISSING FOR REACTANT  2.
 PROGRAM SETS WEIGHT PERCENT = 100. (REACT)

    REACTANT          WT.FRAC   (ENERGY/R),K   TEMP,K  DENSITY
        EXPLODED FORMULA
 F: H2O(L)           1.000000  -0.343786E+05   298.00  0.0000
          H  2.00000  O  1.00000
 O: H2O2(L)          1.000000  -0.225862E+05   298.00  0.0000
          H  2.00000  O  2.00000

  SPECIES BEING CONSIDERED IN THIS SYSTEM
 (CONDENSED PHASE MAY HAVE NAME LISTED SEVERAL TIMES)
  LAST thermo.inp UPDATE:    9/09/04

  g 6/97  *H               g 4/02  HO2              tpis78  *H2            
  g 8/89  H2O              g 6/99  H2O2             g 5/97  *O             
  g 4/02  *OH              tpis89  *O2              g 8/01  O3             
  g11/99  H2O(cr)          g 8/01  H2O(L)           g 8/01  H2O(L)         

 SPECIES WITH TRANSPORT PROPERTIES

        PURE SPECIES

  H                 H2                H2O               O               
  OH                O2              

     BINARY INTERACTIONS

     H               H2              
     H               O               
     H2              H2O             
     H2              O2              
     H2O             O2              
     O               O2              


 O/F =   6.800000

                       EFFECTIVE FUEL     EFFECTIVE OXIDANT        MIXTURE
 ENTHALPY                  h(2)/R              h(1)/R               h0/R
 (KG-MOL)(K)/KG       -0.19083035E+04     -0.66401406E+03     -0.82353834E+03

 KG-FORM.WT./KG             bi(2)               bi(1)               b0i
  *H                   0.11101687E+00      0.58798142E-01      0.65492851E-01
  *O                   0.55508435E-01      0.58798142E-01      0.58376385E-01

 POINT ITN      T            H           O 
   1   10     960.385     -20.665     -13.702
 Pinf/Pt = 1.814436
   2    3     844.220     -22.792     -13.834
 Pinf/Pt = 1.822180
   2    2     843.430     -22.808     -13.835
 Pinf/Pt = 1.822232
   2    1     843.425     -22.808     -13.835
   3    1     843.425     -22.808     -13.835
   4    3     733.592     -25.441     -13.983
   4    2     725.195     -25.676     -13.995
   4    2     725.348     -25.671     -13.995
   5    3     681.904     -26.974     -14.063
   5    2     673.056     -27.259     -14.078
   5    2     673.150     -27.256     -14.078
   6    3     641.851     -28.330     -14.132
   6    2     634.751     -28.589     -14.145
   6    1     634.794     -28.587     -14.144
   7    3     608.878     -29.581     -14.193
   7    2     604.222     -29.769     -14.202
   7    1     604.236     -29.768     -14.202
   8    3     577.382     -30.909     -14.256
   8    2     578.861     -30.843     -14.253





              THEORETICAL ROCKET PERFORMANCE ASSUMING EQUILIBRIUM

           COMPOSITION DURING EXPANSION FROM INFINITE AREA COMBUSTOR

 Pin =    20.0 PSIA
 CASE =                

             REACTANT                    WT FRACTION      ENERGY      TEMP
                                          (SEE NOTE)     KJ/KG-MOL      K  
 FUEL        H2O(L)                       1.0000000   -285841.390    298.000
 OXIDANT     H2O2(L)                      1.0000000   -187793.400    298.000

 O/F=    6.80000  %FUEL= 12.820513  R,EQ.RATIO= 0.560953  PHI,EQ.RATIO= 0.000000

                 CHAMBER   THROAT     EXIT     EXIT     EXIT     EXIT     EXIT     EXIT
 Pinf/P            1.0000   1.8222   1.8222   3.5742   4.9484   6.3670   7.8527   9.4090
 P, BAR            1.3789  0.75673  0.75673  0.38581  0.27867  0.21658  0.17560  0.14656
 T, K              960.38   843.42   843.42   725.35   673.15   634.79   604.24   578.86
 RHO, KG/CU M    3.7903-1 2.3684-1 2.3684-1 1.4041-1 1.0928-1 9.0063-2 7.6717-2 6.6834-2
 H, KJ/KG        -6847.32 -7052.12 -7052.12 -7252.01 -7338.15 -7400.58 -7449.79 -7490.31
 U, KJ/KG        -7211.13 -7371.63 -7371.63 -7526.78 -7593.15 -7641.06 -7678.69 -7709.59
 G, KJ/KG        -17194.4 -16139.1 -16139.1 -15066.8 -14590.6 -14239.8 -13959.8 -13726.9
 S, KJ/(KG)(K)    10.7739  10.7739  10.7739  10.7739  10.7739  10.7739  10.7739  10.7739

 M, (1/n)          21.948   21.948   21.948   21.948   21.948   21.948   21.948   21.948
 (dLV/dLP)t      -1.00000 -1.00000 -1.00000 -1.00000 -1.00000 -1.00000 -1.00000 -1.00000
 (dLV/dLT)p        1.0000   1.0000   1.0000   1.0000   1.0000   1.0000   1.0000   1.0000
 Cp, KJ/(KG)(K)    1.7798   1.7222   1.7222   1.6634   1.6373   1.6181   1.6028   1.5902
 GAMMAs            1.2704   1.2820   1.2820   1.2949   1.3010   1.3057   1.3095   1.3127
 SON VEL,M/SEC      679.8    640.0    640.0    596.5    576.0    560.3    547.5    536.5
 MACH NUMBER        0.000    1.000    1.000    1.508    1.720    1.877    2.005    2.114

 TRANSPORT PROPERTIES (GASES ONLY)
   CONDUCTIVITY IN UNITS OF MILLIWATTS/(CM)(K)

 VISC,MILLIPOISE  0.41512  0.37241  0.37241  0.32715  0.30642  0.29089  0.27836  0.26783

  WITH EQUILIBRIUM REACTIONS

 Cp, KJ/(KG)(K)    1.7798   1.7222   1.7222   1.6634   1.6373   1.6181   1.6028   1.5902
 CONDUCTIVITY      0.8665   0.7386   0.7386   0.6141   0.5610   0.5227   0.4929   0.4685
 PRANDTL NUMBER    0.8527   0.8684   0.8684   0.8861   0.8943   0.9004   0.9052   0.9091

  WITH FROZEN REACTIONS

 Cp, KJ/(KG)(K)    1.7798   1.7222   1.7222   1.6634   1.6373   1.6181   1.6028   1.5902
 CONDUCTIVITY      0.8665   0.7386   0.7386   0.6141   0.5610   0.5227   0.4929   0.4685
 PRANDTL NUMBER    0.8527   0.8684   0.8684   0.8861   0.8943   0.9004   0.9052   0.9091

 PERFORMANCE PARAMETERS

 Ae/At                      1.0000   1.0000   1.2000   1.4000   1.6000   1.8000   2.0000
 CSTAR, M/SEC                909.7    909.7    909.7    909.7    909.7    909.7    909.7
 CF                         0.7035   0.7035   0.9890   1.0891   1.1563   1.2067   1.2466
 Ivac, M/SEC                1139.2   1139.2   1205.1   1248.2   1280.5   1306.2   1327.4
 Isp, M/SEC                  640.0    640.0    899.7    990.8   1051.9   1097.7   1134.0


 MOLE FRACTIONS

 H2O              0.71873  0.71873  0.71873  0.71873  0.71873  0.71873  0.71873  0.71873
 *O2              0.28127  0.28127  0.28127  0.28127  0.28127  0.28127  0.28127  0.28127

  * THERMODYNAMIC PROPERTIES FITTED TO 20000.K

    PRODUCTS WHICH WERE CONSIDERED BUT WHOSE MOLE FRACTIONS
    WERE LESS THAN 5.000000E-06 FOR ALL ASSIGNED CONDITIONS

 *H              HO2             *H2             H2O2            *O             
 *OH             O3              H2O(cr)         H2O(L)         

 NOTE. WEIGHT FRACTION OF FUEL IN TOTAL FUELS AND OF OXIDANT IN TOTAL OXIDANTS





           THEORETICAL ROCKET PERFORMANCE ASSUMING FROZEN COMPOSITION

 Pin =    20.0 PSIA
 CASE =                

             REACTANT                    WT FRACTION      ENERGY      TEMP
                                          (SEE NOTE)     KJ/KG-MOL      K  
 FUEL        H2O(L)                       1.0000000   -285841.390    298.000
 OXIDANT     H2O2(L)                      1.0000000   -187793.400    298.000

 O/F=    6.80000  %FUEL= 12.820513  R,EQ.RATIO= 0.560953  PHI,EQ.RATIO= 0.000000

                 CHAMBER   THROAT     EXIT     EXIT     EXIT     EXIT     EXIT     EXIT
 Pinf/P            1.0000   1.8222   1.8222   3.5742   4.9484   6.3670   7.8527   9.4090
 P, BAR            1.3789  0.75673  0.75673  0.38581  0.27867  0.21658  0.17560  0.14656
 T, K              960.38   843.42   843.42   725.35   673.15   634.79   604.24   578.86
 RHO, KG/CU M    3.7903-1 2.3684-1 2.3684-1 1.4041-1 1.0928-1 9.0063-2 7.6717-2 6.6834-2
 H, KJ/KG        -6847.32 -7052.12 -7052.12 -7252.01 -7338.15 -7400.58 -7449.79 -7490.31
 U, KJ/KG        -7211.13 -7371.63 -7371.63 -7526.78 -7593.15 -7641.06 -7678.69 -7709.59
 G, KJ/KG        -17194.4 -16139.1 -16139.1 -15066.8 -14590.6 -14239.8 -13959.8 -13726.9
 S, KJ/(KG)(K)    10.7739  10.7739  10.7739  10.7739  10.7739  10.7739  10.7739  10.7739

 M, (1/n)          21.948   21.948   21.948   21.948   21.948   21.948   21.948   21.948
 Cp, KJ/(KG)(K)    1.7798   1.7222   1.7222   1.6634   1.6373   1.6181   1.6028   1.5902
 GAMMAs            1.2704   1.2820   1.2820   1.2949   1.3010   1.3057   1.3095   1.3127
 SON VEL,M/SEC      679.8    640.0    640.0    596.5    576.0    560.3    547.5    536.5
 MACH NUMBER        0.000    1.000    1.000    1.508    1.720    1.877    2.005    2.114

 TRANSPORT PROPERTIES (GASES ONLY)
   CONDUCTIVITY IN UNITS OF MILLIWATTS/(CM)(K)

 VISC,MILLIPOISE  0.41512  0.37241  0.37241  0.32715  0.30642  0.29089  0.27836  0.26783

  WITH FROZEN REACTIONS

 Cp, KJ/(KG)(K)    1.7798   1.7222   1.7222   1.6634   1.6373   1.6181   1.6028   1.5902
 CONDUCTIVITY      0.8665   0.7386   0.7386   0.6141   0.5610   0.5227   0.4929   0.4685
 PRANDTL NUMBER    0.8527   0.8684   0.8684   0.8861   0.8943   0.9004   0.9052   0.9091

 PERFORMANCE PARAMETERS

 Ae/At                      1.0000   1.0000   1.2000   1.4000   1.6000   1.8000   2.0000
 CSTAR, M/SEC                909.7    909.7    909.7    909.7    909.7    909.7    909.7
 CF                         0.7035   0.7035   0.9890   1.0891   1.1563   1.2067   1.2466
 Ivac, M/SEC                1139.2   1139.2   1205.1   1248.2   1280.5   1306.2   1327.4
 Isp, M/SEC                  640.0    640.0    899.7    990.8   1051.9   1097.7   1134.0

 MOLE FRACTIONS

 H2O             0.71873   *O2             0.28127

  * THERMODYNAMIC PROPERTIES FITTED TO 20000.K

    PRODUCTS WHICH WERE CONSIDERED BUT WHOSE MOLE FRACTIONS
    WERE LESS THAN 5.000000E-06 FOR ALL ASSIGNED CONDITIONS

 *H              HO2             *H2             H2O2            *O             
 *OH             O3              H2O(cr)         H2O(L)         

 NOTE. WEIGHT FRACTION OF FUEL IN TOTAL FUELS AND OF OXIDANT IN TOTAL OXIDANTS






 POINT ITN      T            H           O 
   1    1     960.385     -20.564     -13.499
 Pinf/Pt = 1.814437
   2    3     844.220     -22.691     -13.631
 Pinf/Pt = 1.822180
   2    2     843.430     -22.707     -13.632
 Pinf/Pt = 1.822232
   2    1     843.425     -22.707     -13.632
   3    1     843.425     -22.707     -13.632
   4    3     733.592     -25.340     -13.780
   4    2     725.195     -25.574     -13.793
   4    2     725.348     -25.570     -13.792
   5    3     681.904     -26.872     -13.860
   5    2     673.056     -27.158     -13.875
   5    2     673.150     -27.155     -13.875
   6    3     641.851     -28.229     -13.929
   6    2     634.751     -28.487     -13.942
   6    1     634.794     -28.486     -13.942
   7    3     608.878     -29.480     -13.990
   7    2     604.222     -29.667     -13.999
   7    1     604.236     -29.667     -13.999
   8    3     577.382     -30.808     -14.054
   8    2     578.861     -30.742     -14.051





              THEORETICAL ROCKET PERFORMANCE ASSUMING EQUILIBRIUM

           COMPOSITION DURING EXPANSION FROM INFINITE AREA COMBUSTOR

 Pin =    30.0 PSIA
 CASE =                

             REACTANT                    WT FRACTION      ENERGY      TEMP
                                          (SEE NOTE)     KJ/KG-MOL      K  
 FUEL        H2O(L)                       1.0000000   -285841.390    298.000
 OXIDANT     H2O2(L)                      1.0000000   -187793.400    298.000

 O/F=    6.80000  %FUEL= 12.820513  R,EQ.RATIO= 0.560953  PHI,EQ.RATIO= 0.000000

                 CHAMBER   THROAT     EXIT     EXIT     EXIT     EXIT     EXIT     EXIT
 Pinf/P            1.0000   1.8222   1.8222   3.5742   4.9484   6.3670   7.8527   9.4090
 P, BAR            2.0684   1.1351   1.1351  0.57871  0.41800  0.32486  0.26340  0.21983
 T, K              960.38   843.42   843.42   725.35   673.15   634.79   604.24   578.86
 RHO, KG/CU M    5.6854-1 3.5527-1 3.5527-1 2.1061-1 1.6392-1 1.3509-1 1.1507-1 1.0025-1
 H, KJ/KG        -6847.32 -7052.12 -7052.12 -7252.01 -7338.15 -7400.58 -7449.79 -7490.31
 U, KJ/KG        -7211.13 -7371.63 -7371.63 -7526.78 -7593.15 -7641.06 -7678.69 -7709.59
 G, KJ/KG        -17046.9 -16009.5 -16009.5 -14955.4 -14487.2 -14142.3 -13867.0 -13638.0
 S, KJ/(KG)(K)    10.6203  10.6203  10.6203  10.6203  10.6203  10.6203  10.6203  10.6203

 M, (1/n)          21.948   21.948   21.948   21.948   21.948   21.948   21.948   21.948
 (dLV/dLP)t      -1.00000 -1.00000 -1.00000 -1.00000 -1.00000 -1.00000 -1.00000 -1.00000
 (dLV/dLT)p        1.0000   1.0000   1.0000   1.0000   1.0000   1.0000   1.0000   1.0000
 Cp, KJ/(KG)(K)    1.7798   1.7222   1.7222   1.6634   1.6373   1.6181   1.6028   1.5902
 GAMMAs            1.2704   1.2820   1.2820   1.2949   1.3010   1.3057   1.3095   1.3127
 SON VEL,M/SEC      679.8    640.0    640.0    596.5    576.0    560.3    547.5    536.5
 MACH NUMBER        0.000    1.000    1.000    1.508    1.720    1.877    2.005    2.114

 TRANSPORT PROPERTIES (GASES ONLY)
   CONDUCTIVITY IN UNITS OF MILLIWATTS/(CM)(K)

 VISC,MILLIPOISE  0.41512  0.37241  0.37241  0.32715  0.30642  0.29089  0.27836  0.26783

  WITH EQUILIBRIUM REACTIONS

 Cp, KJ/(KG)(K)    1.7798   1.7222   1.7222   1.6634   1.6373   1.6181   1.6028   1.5902
 CONDUCTIVITY      0.8665   0.7386   0.7386   0.6141   0.5610   0.5227   0.4929   0.4685
 PRANDTL NUMBER    0.8527   0.8684   0.8684   0.8861   0.8943   0.9004   0.9052   0.9091

  WITH FROZEN REACTIONS

 Cp, KJ/(KG)(K)    1.7798   1.7222   1.7222   1.6634   1.6373   1.6181   1.6028   1.5902
 CONDUCTIVITY      0.8665   0.7386   0.7386   0.6141   0.5610   0.5227   0.4929   0.4685
 PRANDTL NUMBER    0.8527   0.8684   0.8684   0.8861   0.8943   0.9004   0.9052   0.9091

 PERFORMANCE PARAMETERS

 Ae/At                      1.0000   1.0000   1.2000   1.4000   1.6000   1.8000   2.0000
 CSTAR, M/SEC                909.7    909.7    909.7    909.7    909.7    909.7    909.7
 CF                         0.7035   0.7035   0.9890   1.0891   1.1563   1.2067   1.2466
 Ivac, M/SEC                1139.2   1139.2   1205.1   1248.2   1280.5   1306.2   1327.4
 Isp, M/SEC                  640.0    640.0    899.7    990.8   1051.9   1097.7   1134.0


 MOLE FRACTIONS

 H2O              0.71873  0.71873  0.71873  0.71873  0.71873  0.71873  0.71873  0.71873
 *O2              0.28127  0.28127  0.28127  0.28127  0.28127  0.28127  0.28127  0.28127

  * THERMODYNAMIC PROPERTIES FITTED TO 20000.K

    PRODUCTS WHICH WERE CONSIDERED BUT WHOSE MOLE FRACTIONS
    WERE LESS THAN 5.000000E-06 FOR ALL ASSIGNED CONDITIONS

 *H              HO2             *H2             H2O2            *O             
 *OH             O3              H2O(cr)         H2O(L)         

 NOTE. WEIGHT FRACTION OF FUEL IN TOTAL FUELS AND OF OXIDANT IN TOTAL OXIDANTS





           THEORETICAL ROCKET PERFORMANCE ASSUMING FROZEN COMPOSITION

 Pin =    30.0 PSIA
 CASE =                

             REACTANT                    WT FRACTION      ENERGY      TEMP
                                          (SEE NOTE)     KJ/KG-MOL      K  
 FUEL        H2O(L)                       1.0000000   -285841.390    298.000
 OXIDANT     H2O2(L)                      1.0000000   -187793.400    298.000

 O/F=    6.80000  %FUEL= 12.820513  R,EQ.RATIO= 0.560953  PHI,EQ.RATIO= 0.000000

                 CHAMBER   THROAT     EXIT     EXIT     EXIT     EXIT     EXIT     EXIT
 Pinf/P            1.0000   1.8222   1.8222   3.5742   4.9484   6.3670   7.8527   9.4090
 P, BAR            2.0684   1.1351   1.1351  0.57871  0.41800  0.32486  0.26340  0.21983
 T, K              960.38   843.42   843.42   725.35   673.15   634.79   604.24   578.86
 RHO, KG/CU M    5.6854-1 3.5527-1 3.5527-1 2.1061-1 1.6392-1 1.3509-1 1.1507-1 1.0025-1
 H, KJ/KG        -6847.32 -7052.12 -7052.12 -7252.01 -7338.15 -7400.58 -7449.79 -7490.31
 U, KJ/KG        -7211.13 -7371.63 -7371.63 -7526.78 -7593.15 -7641.06 -7678.69 -7709.59
 G, KJ/KG        -17046.9 -16009.5 -16009.5 -14955.4 -14487.2 -14142.3 -13867.0 -13638.0
 S, KJ/(KG)(K)    10.6203  10.6203  10.6203  10.6203  10.6203  10.6203  10.6203  10.6203

 M, (1/n)          21.948   21.948   21.948   21.948   21.948   21.948   21.948   21.948
 Cp, KJ/(KG)(K)    1.7798   1.7222   1.7222   1.6634   1.6373   1.6181   1.6028   1.5902
 GAMMAs            1.2704   1.2820   1.2820   1.2949   1.3010   1.3057   1.3095   1.3127
 SON VEL,M/SEC      679.8    640.0    640.0    596.5    576.0    560.3    547.5    536.5
 MACH NUMBER        0.000    1.000    1.000    1.508    1.720    1.877    2.005    2.114

 TRANSPORT PROPERTIES (GASES ONLY)
   CONDUCTIVITY IN UNITS OF MILLIWATTS/(CM)(K)

 VISC,MILLIPOISE  0.41512  0.37241  0.37241  0.32715  0.30642  0.29089  0.27836  0.26783

  WITH FROZEN REACTIONS

 Cp, KJ/(KG)(K)    1.7798   1.7222   1.7222   1.6634   1.6373   1.6181   1.6028   1.5902
 CONDUCTIVITY      0.8665   0.7386   0.7386   0.6141   0.5610   0.5227   0.4929   0.4685
 PRANDTL NUMBER    0.8527   0.8684   0.8684   0.8861   0.8943   0.9004   0.9052   0.9091

 PERFORMANCE PARAMETERS

 Ae/At                      1.0000   1.0000   1.2000   1.4000   1.6000   1.8000   2.0000
 CSTAR, M/SEC                909.7    909.7    909.7    909.7    909.7    909.7    909.7
 CF                         0.7035   0.7035   0.9890   1.0891   1.1563   1.2067   1.2466
 Ivac, M/SEC                1139.2   1139.2   1205.1   1248.2   1280.5   1306.2   1327.4
 Isp, M/SEC                  640.0    640.0    899.7    990.8   1051.9   1097.7   1134.0

 MOLE FRACTIONS

 H2O             0.71873   *O2             0.28127

  * THERMODYNAMIC PROPERTIES FITTED TO 20000.K

    PRODUCTS WHICH WERE CONSIDERED BUT WHOSE MOLE FRACTIONS
    WERE LESS THAN 5.000000E-06 FOR ALL ASSIGNED CONDITIONS

 *H              HO2             *H2             H2O2            *O             
 *OH             O3              H2O(cr)         H2O(L)         

 NOTE. WEIGHT FRACTION OF FUEL IN TOTAL FUELS AND OF OXIDANT IN TOTAL OXIDANTS






 POINT ITN      T            H           O 
   1    1     960.385     -20.492     -13.355
 Pinf/Pt = 1.814437
   2    3     844.220     -22.619     -13.487
 Pinf/Pt = 1.822180
   2    2     843.430     -22.635     -13.488
 Pinf/Pt = 1.822232
   2    1     843.425     -22.635     -13.488
   3    1     843.425     -22.635     -13.488
   4    3     733.592     -25.268     -13.636
   4    2     725.195     -25.502     -13.649
   4    2     725.348     -25.498     -13.649
   5    3     681.904     -26.800     -13.717
   5    2     673.056     -27.086     -13.731
   5    2     673.150     -27.083     -13.731
   6    3     641.851     -28.157     -13.785
   6    2     634.751     -28.415     -13.798
   6    1     634.794     -28.414     -13.798
   7    3     608.878     -29.408     -13.846
   7    2     604.222     -29.595     -13.856
   7    1     604.236     -29.595     -13.855
   8    3     577.382     -30.736     -13.910
   8    2     578.861     -30.670     -13.907





              THEORETICAL ROCKET PERFORMANCE ASSUMING EQUILIBRIUM

           COMPOSITION DURING EXPANSION FROM INFINITE AREA COMBUSTOR

 Pin =    40.0 PSIA
 CASE =                

             REACTANT                    WT FRACTION      ENERGY      TEMP
                                          (SEE NOTE)     KJ/KG-MOL      K  
 FUEL        H2O(L)                       1.0000000   -285841.390    298.000
 OXIDANT     H2O2(L)                      1.0000000   -187793.400    298.000

 O/F=    6.80000  %FUEL= 12.820513  R,EQ.RATIO= 0.560953  PHI,EQ.RATIO= 0.000000

                 CHAMBER   THROAT     EXIT     EXIT     EXIT     EXIT     EXIT     EXIT
 Pinf/P            1.0000   1.8222   1.8222   3.5742   4.9484   6.3670   7.8527   9.4090
 P, BAR            2.7579   1.5135   1.5135  0.77161  0.55733  0.43315  0.35120  0.29311
 T, K              960.38   843.42   843.42   725.35   673.15   634.79   604.24   578.86
 RHO, KG/CU M    7.5805-1 4.7369-1 4.7369-1 2.8081-1 2.1856-1 1.8013-1 1.5343-1 1.3367-1
 H, KJ/KG        -6847.32 -7052.12 -7052.12 -7252.01 -7338.15 -7400.58 -7449.79 -7490.31
 U, KJ/KG        -7211.13 -7371.63 -7371.63 -7526.78 -7593.15 -7641.06 -7678.69 -7709.59
 G, KJ/KG        -16942.2 -15917.6 -15917.6 -14876.4 -14413.8 -14073.1 -13801.1 -13574.9
 S, KJ/(KG)(K)    10.5113  10.5113  10.5113  10.5113  10.5113  10.5113  10.5113  10.5113

 M, (1/n)          21.948   21.948   21.948   21.948   21.948   21.948   21.948   21.948
 (dLV/dLP)t      -1.00000 -1.00000 -1.00000 -1.00000 -1.00000 -1.00000 -1.00000 -1.00000
 (dLV/dLT)p        1.0000   1.0000   1.0000   1.0000   1.0000   1.0000   1.0000   1.0000
 Cp, KJ/(KG)(K)    1.7798   1.7222   1.7222   1.6634   1.6373   1.6181   1.6028   1.5902
 GAMMAs            1.2704   1.2820   1.2820   1.2949   1.3010   1.3057   1.3095   1.3127
 SON VEL,M/SEC      679.8    640.0    640.0    596.5    576.0    560.3    547.5    536.5
 MACH NUMBER        0.000    1.000    1.000    1.508    1.720    1.877    2.005    2.114

 TRANSPORT PROPERTIES (GASES ONLY)
   CONDUCTIVITY IN UNITS OF MILLIWATTS/(CM)(K)

 VISC,MILLIPOISE  0.41512  0.37241  0.37241  0.32715  0.30642  0.29089  0.27836  0.26783

  WITH EQUILIBRIUM REACTIONS

 Cp, KJ/(KG)(K)    1.7798   1.7222   1.7222   1.6634   1.6373   1.6181   1.6028   1.5902
 CONDUCTIVITY      0.8665   0.7386   0.7386   0.6141   0.5610   0.5227   0.4929   0.4685
 PRANDTL NUMBER    0.8527   0.8684   0.8684   0.8861   0.8943   0.9004   0.9052   0.9091

  WITH FROZEN REACTIONS

 Cp, KJ/(KG)(K)    1.7798   1.7222   1.7222   1.6634   1.6373   1.6181   1.6028   1.5902
 CONDUCTIVITY      0.8665   0.7386   0.7386   0.6141   0.5610   0.5227   0.4929   0.4685
 PRANDTL NUMBER    0.8527   0.8684   0.8684   0.8861   0.8943   0.9004   0.9052   0.9091

 PERFORMANCE PARAMETERS

 Ae/At                      1.0000   1.0000   1.2000   1.4000   1.6000   1.8000   2.0000
 CSTAR, M/SEC                909.7    909.7    909.7    909.7    909.7    909.7    909.7
 CF                         0.7035   0.7035   0.9890   1.0891   1.1563   1.2067   1.2466
 Ivac, M/SEC                1139.2   1139.2   1205.1   1248.2   1280.5   1306.2   1327.4
 Isp, M/SEC                  640.0    640.0    899.7    990.8   1051.9   1097.7   1134.0


 MOLE FRACTIONS

 H2O              0.71873  0.71873  0.71873  0.71873  0.71873  0.71873  0.71873  0.71873
 *O2              0.28127  0.28127  0.28127  0.28127  0.28127  0.28127  0.28127  0.28127

  * THERMODYNAMIC PROPERTIES FITTED TO 20000.K

    PRODUCTS WHICH WERE CONSIDERED BUT WHOSE MOLE FRACTIONS
    WERE LESS THAN 5.000000E-06 FOR ALL ASSIGNED CONDITIONS

 *H              HO2             *H2             H2O2            *O             
 *OH             O3              H2O(cr)         H2O(L)         

 NOTE. WEIGHT FRACTION OF FUEL IN TOTAL FUELS AND OF OXIDANT IN TOTAL OXIDANTS





           THEORETICAL ROCKET PERFORMANCE ASSUMING FROZEN COMPOSITION

 Pin =    40.0 PSIA
 CASE =                

             REACTANT                    WT FRACTION      ENERGY      TEMP
                                          (SEE NOTE)     KJ/KG-MOL      K  
 FUEL        H2O(L)                       1.0000000   -285841.390    298.000
 OXIDANT     H2O2(L)                      1.0000000   -187793.400    298.000

 O/F=    6.80000  %FUEL= 12.820513  R,EQ.RATIO= 0.560953  PHI,EQ.RATIO= 0.000000

                 CHAMBER   THROAT     EXIT     EXIT     EXIT     EXIT     EXIT     EXIT
 Pinf/P            1.0000   1.8222   1.8222   3.5742   4.9484   6.3670   7.8527   9.4090
 P, BAR            2.7579   1.5135   1.5135  0.77161  0.55733  0.43315  0.35120  0.29311
 T, K              960.38   843.42   843.42   725.35   673.15   634.79   604.24   578.86
 RHO, KG/CU M    7.5805-1 4.7369-1 4.7369-1 2.8081-1 2.1856-1 1.8013-1 1.5343-1 1.3367-1
 H, KJ/KG        -6847.32 -7052.12 -7052.12 -7252.01 -7338.15 -7400.58 -7449.79 -7490.31
 U, KJ/KG        -7211.13 -7371.63 -7371.63 -7526.78 -7593.15 -7641.06 -7678.69 -7709.59
 G, KJ/KG        -16942.2 -15917.6 -15917.6 -14876.4 -14413.8 -14073.1 -13801.1 -13574.9
 S, KJ/(KG)(K)    10.5113  10.5113  10.5113  10.5113  10.5113  10.5113  10.5113  10.5113

 M, (1/n)          21.948   21.948   21.948   21.948   21.948   21.948   21.948   21.948
 Cp, KJ/(KG)(K)    1.7798   1.7222   1.7222   1.6634   1.6373   1.6181   1.6028   1.5902
 GAMMAs            1.2704   1.2820   1.2820   1.2949   1.3010   1.3057   1.3095   1.3127
 SON VEL,M/SEC      679.8    640.0    640.0    596.5    576.0    560.3    547.5    536.5
 MACH NUMBER        0.000    1.000    1.000    1.508    1.720    1.877    2.005    2.114

 TRANSPORT PROPERTIES (GASES ONLY)
   CONDUCTIVITY IN UNITS OF MILLIWATTS/(CM)(K)

 VISC,MILLIPOISE  0.41512  0.37241  0.37241  0.32715  0.30642  0.29089  0.27836  0.26783

  WITH FROZEN REACTIONS

 Cp, KJ/(KG)(K)    1.7798   1.7222   1.7222   1.6634   1.6373   1.6181   1.6028   1.5902
 CONDUCTIVITY      0.8665   0.7386   0.7386   0.6141   0.5610   0.5227   0.4929   0.4685
 PRANDTL NUMBER    0.8527   0.8684   0.8684   0.8861   0.8943   0.9004   0.9052   0.9091

 PERFORMANCE PARAMETERS

 Ae/At                      1.0000   1.0000   1.2000   1.4000   1.6000   1.8000   2.0000
 CSTAR, M/SEC                909.7    909.7    909.7    909.7    909.7    909.7    909.7
 CF                         0.7035   0.7035   0.9890   1.0891   1.1563   1.2067   1.2466
 Ivac, M/SEC                1139.2   1139.2   1205.1   1248.2   1280.5   1306.2   1327.4
 Isp, M/SEC                  640.0    640.0    899.7    990.8   1051.9   1097.7   1134.0

 MOLE FRACTIONS

 H2O             0.71873   *O2             0.28127

  * THERMODYNAMIC PROPERTIES FITTED TO 20000.K

    PRODUCTS WHICH WERE CONSIDERED BUT WHOSE MOLE FRACTIONS
    WERE LESS THAN 5.000000E-06 FOR ALL ASSIGNED CONDITIONS

 *H              HO2             *H2             H2O2            *O             
 *OH             O3              H2O(cr)         H2O(L)         

 NOTE. WEIGHT FRACTION OF FUEL IN TOTAL FUELS AND OF OXIDANT IN TOTAL OXIDANTS






 POINT ITN      T            H           O 
   1    1     960.385     -20.436     -13.244
 Pinf/Pt = 1.814437
   2    3     844.220     -22.563     -13.376
 Pinf/Pt = 1.822180
   2    2     843.430     -22.579     -13.377
 Pinf/Pt = 1.822232
   2    1     843.425     -22.579     -13.377
   3    1     843.425     -22.579     -13.377
   4    3     733.592     -25.212     -13.525
   4    2     725.195     -25.446     -13.537
   4    2     725.348     -25.442     -13.537
   5    3     681.904     -26.745     -13.605
   5    2     673.056     -27.030     -13.620
   5    2     673.150     -27.027     -13.620
   6    3     641.851     -28.101     -13.674
   6    2     634.751     -28.360     -13.686
   6    1     634.794     -28.358     -13.686
   7    3     608.878     -29.352     -13.735
   7    2     604.222     -29.540     -13.744
   7    1     604.236     -29.539     -13.744
   8    3     577.382     -30.680     -13.798
   8    2     578.861     -30.614     -13.795





              THEORETICAL ROCKET PERFORMANCE ASSUMING EQUILIBRIUM

           COMPOSITION DURING EXPANSION FROM INFINITE AREA COMBUSTOR

 Pin =    50.0 PSIA
 CASE =                

             REACTANT                    WT FRACTION      ENERGY      TEMP
                                          (SEE NOTE)     KJ/KG-MOL      K  
 FUEL        H2O(L)                       1.0000000   -285841.390    298.000
 OXIDANT     H2O2(L)                      1.0000000   -187793.400    298.000

 O/F=    6.80000  %FUEL= 12.820513  R,EQ.RATIO= 0.560953  PHI,EQ.RATIO= 0.000000

                 CHAMBER   THROAT     EXIT     EXIT     EXIT     EXIT     EXIT     EXIT
 Pinf/P            1.0000   1.8222   1.8222   3.5742   4.9484   6.3670   7.8527   9.4090
 P, BAR            3.4474   1.8918   1.8918  0.96452  0.69666  0.54144  0.43901  0.36639
 T, K              960.38   843.42   843.42   725.35   673.15   634.79   604.24   578.86
 RHO, KG/CU M    9.4756-1 5.9211-1 5.9211-1 3.5102-1 2.7320-1 2.2516-1 1.9179-1 1.6709-1
 H, KJ/KG        -6847.32 -7052.12 -7052.12 -7252.01 -7338.15 -7400.58 -7449.79 -7490.31
 U, KJ/KG        -7211.13 -7371.63 -7371.63 -7526.78 -7593.15 -7641.06 -7678.69 -7709.59
 G, KJ/KG        -16861.0 -15846.3 -15846.3 -14815.0 -14356.9 -14019.4 -13750.0 -13526.0
 S, KJ/(KG)(K)    10.4268  10.4268  10.4268  10.4268  10.4268  10.4268  10.4268  10.4268

 M, (1/n)          21.948   21.948   21.948   21.948   21.948   21.948   21.948   21.948
 (dLV/dLP)t      -1.00000 -1.00000 -1.00000 -1.00000 -1.00000 -1.00000 -1.00000 -1.00000
 (dLV/dLT)p        1.0000   1.0000   1.0000   1.0000   1.0000   1.0000   1.0000   1.0000
 Cp, KJ/(KG)(K)    1.7798   1.7222   1.7222   1.6634   1.6373   1.6181   1.6028   1.5902
 GAMMAs            1.2704   1.2820   1.2820   1.2949   1.3010   1.3057   1.3095   1.3127
 SON VEL,M/SEC      679.8    640.0    640.0    596.5    576.0    560.3    547.5    536.5
 MACH NUMBER        0.000    1.000    1.000    1.508    1.720    1.877    2.005    2.114

 TRANSPORT PROPERTIES (GASES ONLY)
   CONDUCTIVITY IN UNITS OF MILLIWATTS/(CM)(K)

 VISC,MILLIPOISE  0.41512  0.37241  0.37241  0.32715  0.30642  0.29089  0.27836  0.26783

  WITH EQUILIBRIUM REACTIONS

 Cp, KJ/(KG)(K)    1.7798   1.7222   1.7222   1.6634   1.6373   1.6181   1.6028   1.5902
 CONDUCTIVITY      0.8665   0.7386   0.7386   0.6141   0.5610   0.5227   0.4929   0.4685
 PRANDTL NUMBER    0.8527   0.8684   0.8684   0.8861   0.8943   0.9004   0.9052   0.9091

  WITH FROZEN REACTIONS

 Cp, KJ/(KG)(K)    1.7798   1.7222   1.7222   1.6634   1.6373   1.6181   1.6028   1.5902
 CONDUCTIVITY      0.8665   0.7386   0.7386   0.6141   0.5610   0.5227   0.4929   0.4685
 PRANDTL NUMBER    0.8527   0.8684   0.8684   0.8861   0.8943   0.9004   0.9052   0.9091

 PERFORMANCE PARAMETERS

 Ae/At                      1.0000   1.0000   1.2000   1.4000   1.6000   1.8000   2.0000
 CSTAR, M/SEC                909.7    909.7    909.7    909.7    909.7    909.7    909.7
 CF                         0.7035   0.7035   0.9890   1.0891   1.1563   1.2067   1.2466
 Ivac, M/SEC                1139.2   1139.2   1205.1   1248.2   1280.5   1306.2   1327.4
 Isp, M/SEC                  640.0    640.0    899.7    990.8   1051.9   1097.7   1134.0


 MOLE FRACTIONS

 H2O              0.71873  0.71873  0.71873  0.71873  0.71873  0.71873  0.71873  0.71873
 *O2              0.28127  0.28127  0.28127  0.28127  0.28127  0.28127  0.28127  0.28127

  * THERMODYNAMIC PROPERTIES FITTED TO 20000.K

    PRODUCTS WHICH WERE CONSIDERED BUT WHOSE MOLE FRACTIONS
    WERE LESS THAN 5.000000E-06 FOR ALL ASSIGNED CONDITIONS

 *H              HO2             *H2             H2O2            *O             
 *OH             O3              H2O(cr)         H2O(L)         

 NOTE. WEIGHT FRACTION OF FUEL IN TOTAL FUELS AND OF OXIDANT IN TOTAL OXIDANTS





           THEORETICAL ROCKET PERFORMANCE ASSUMING FROZEN COMPOSITION

 Pin =    50.0 PSIA
 CASE =                

             REACTANT                    WT FRACTION      ENERGY      TEMP
                                          (SEE NOTE)     KJ/KG-MOL      K  
 FUEL        H2O(L)                       1.0000000   -285841.390    298.000
 OXIDANT     H2O2(L)                      1.0000000   -187793.400    298.000

 O/F=    6.80000  %FUEL= 12.820513  R,EQ.RATIO= 0.560953  PHI,EQ.RATIO= 0.000000

                 CHAMBER   THROAT     EXIT     EXIT     EXIT     EXIT     EXIT     EXIT
 Pinf/P            1.0000   1.8222   1.8222   3.5742   4.9484   6.3670   7.8527   9.4090
 P, BAR            3.4474   1.8918   1.8918  0.96452  0.69666  0.54144  0.43901  0.36639
 T, K              960.38   843.42   843.42   725.35   673.15   634.79   604.24   578.86
 RHO, KG/CU M    9.4756-1 5.9211-1 5.9211-1 3.5102-1 2.7320-1 2.2516-1 1.9179-1 1.6709-1
 H, KJ/KG        -6847.32 -7052.12 -7052.12 -7252.01 -7338.15 -7400.58 -7449.79 -7490.31
 U, KJ/KG        -7211.13 -7371.63 -7371.63 -7526.78 -7593.15 -7641.06 -7678.69 -7709.59
 G, KJ/KG        -16861.0 -15846.3 -15846.3 -14815.0 -14356.9 -14019.4 -13750.0 -13526.0
 S, KJ/(KG)(K)    10.4268  10.4268  10.4268  10.4268  10.4268  10.4268  10.4268  10.4268

 M, (1/n)          21.948   21.948   21.948   21.948   21.948   21.948   21.948   21.948
 Cp, KJ/(KG)(K)    1.7798   1.7222   1.7222   1.6634   1.6373   1.6181   1.6028   1.5902
 GAMMAs            1.2704   1.2820   1.2820   1.2949   1.3010   1.3057   1.3095   1.3127
 SON VEL,M/SEC      679.8    640.0    640.0    596.5    576.0    560.3    547.5    536.5
 MACH NUMBER        0.000    1.000    1.000    1.508    1.720    1.877    2.005    2.114

 TRANSPORT PROPERTIES (GASES ONLY)
   CONDUCTIVITY IN UNITS OF MILLIWATTS/(CM)(K)

 VISC,MILLIPOISE  0.41512  0.37241  0.37241  0.32715  0.30642  0.29089  0.27836  0.26783

  WITH FROZEN REACTIONS

 Cp, KJ/(KG)(K)    1.7798   1.7222   1.7222   1.6634   1.6373   1.6181   1.6028   1.5902
 CONDUCTIVITY      0.8665   0.7386   0.7386   0.6141   0.5610   0.5227   0.4929   0.4685
 PRANDTL NUMBER    0.8527   0.8684   0.8684   0.8861   0.8943   0.9004   0.9052   0.9091

 PERFORMANCE PARAMETERS

 Ae/At                      1.0000   1.0000   1.2000   1.4000   1.6000   1.8000   2.0000
 CSTAR, M/SEC                909.7    909.7    909.7    909.7    909.7    909.7    909.7
 CF                         0.7035   0.7035   0.9890   1.0891   1.1563   1.2067   1.2466
 Ivac, M/SEC                1139.2   1139.2   1205.1   1248.2   1280.5   1306.2   1327.4
 Isp, M/SEC                  640.0    640.0    899.7    990.8   1051.9   1097.7   1134.0

 MOLE FRACTIONS

 H2O             0.71873   *O2             0.28127

  * THERMODYNAMIC PROPERTIES FITTED TO 20000.K

    PRODUCTS WHICH WERE CONSIDERED BUT WHOSE MOLE FRACTIONS
    WERE LESS THAN 5.000000E-06 FOR ALL ASSIGNED CONDITIONS

 *H              HO2             *H2             H2O2            *O             
 *OH             O3              H2O(cr)         H2O(L)         

 NOTE. WEIGHT FRACTION OF FUEL IN TOTAL FUELS AND OF OXIDANT IN TOTAL OXIDANTS






 O/F =   7.000000

                       EFFECTIVE FUEL     EFFECTIVE OXIDANT        MIXTURE
 ENTHALPY                  h(2)/R              h(1)/R               h0/R
 (KG-MOL)(K)/KG       -0.19083035E+04     -0.66401406E+03     -0.81955023E+03

 KG-FORM.WT./KG             bi(2)               bi(1)               b0i
  *H                   0.11101687E+00      0.58798142E-01      0.65325483E-01
  *O                   0.55508435E-01      0.58798142E-01      0.58386929E-01

 POINT ITN      T            H           O 
   1    2     968.226     -20.552     -13.710
 Pinf/Pt = 1.814028
   2    3     851.365     -22.656     -13.842
 Pinf/Pt = 1.821769
   2    2     850.569     -22.672     -13.843
 Pinf/Pt = 1.821821
   2    1     850.564     -22.672     -13.843
   3    1     850.564     -22.672     -13.843
   4    3     739.989     -25.278     -13.990
   4    2     731.577     -25.509     -14.003
   4    2     731.730     -25.504     -14.002
   5    3     687.937     -26.794     -14.070
   5    2     679.085     -27.075     -14.085
   5    2     679.179     -27.072     -14.084
   6    3     647.594     -28.137     -14.138
   6    2     640.512     -28.390     -14.151
   6    1     640.554     -28.389     -14.151
   7    3     614.377     -29.375     -14.199
   7    2     609.764     -29.557     -14.208
   7    1     609.778     -29.557     -14.208
   8    3     582.706     -30.686     -14.262
   8    2     584.217     -30.620     -14.259





              THEORETICAL ROCKET PERFORMANCE ASSUMING EQUILIBRIUM

           COMPOSITION DURING EXPANSION FROM INFINITE AREA COMBUSTOR

 Pin =    20.0 PSIA
 CASE =                

             REACTANT                    WT FRACTION      ENERGY      TEMP
                                          (SEE NOTE)     KJ/KG-MOL      K  
 FUEL        H2O(L)                       1.0000000   -285841.390    298.000
 OXIDANT     H2O2(L)                      1.0000000   -187793.400    298.000

 O/F=    7.00000  %FUEL= 12.500000  R,EQ.RATIO= 0.559419  PHI,EQ.RATIO= 0.000000

                 CHAMBER   THROAT     EXIT     EXIT     EXIT     EXIT     EXIT     EXIT
 Pinf/P            1.0000   1.8218   1.8218   3.5725   4.9454   6.3626   7.8467   9.4012
 P, BAR            1.3789  0.75691  0.75691  0.38599  0.27883  0.21673  0.17574  0.14668
 T, K              968.23   850.56   850.56   731.73   679.18   640.55   609.78   584.22
 RHO, KG/CU M    3.7626-1 2.3510-1 2.3510-1 1.3936-1 1.0846-1 8.9386-2 7.6138-2 6.6329-2
 H, KJ/KG        -6814.16 -7020.42 -7020.42 -7221.79 -7308.60 -7371.52 -7421.12 -7461.96
 U, KJ/KG        -7180.65 -7342.37 -7342.37 -7498.77 -7565.68 -7613.98 -7651.94 -7683.10
 G, KJ/KG        -17252.4 -16190.2 -16190.2 -15110.4 -14630.7 -14277.2 -13995.0 -13760.3
 S, KJ/(KG)(K)    10.7808  10.7808  10.7808  10.7808  10.7808  10.7808  10.7808  10.7808

 M, (1/n)          21.966   21.966   21.966   21.966   21.966   21.966   21.966   21.966
 (dLV/dLP)t      -1.00000 -1.00000 -1.00000 -1.00000 -1.00000 -1.00000 -1.00000 -1.00000
 (dLV/dLT)p        1.0000   1.0000   1.0000   1.0000   1.0000   1.0000   1.0000   1.0000
 Cp, KJ/(KG)(K)    1.7819   1.7240   1.7240   1.6650   1.6387   1.6194   1.6040   1.5914
 GAMMAs            1.2697   1.2813   1.2813   1.2942   1.3004   1.3050   1.3089   1.3121
 SON VEL,M/SEC      682.2    642.3    642.3    598.7    578.2    562.5    549.6    538.7
 MACH NUMBER        0.000    1.000    1.000    1.508    1.720    1.877    2.005    2.113

 TRANSPORT PROPERTIES (GASES ONLY)
   CONDUCTIVITY IN UNITS OF MILLIWATTS/(CM)(K)

 VISC,MILLIPOISE  0.41811  0.37529  0.37529  0.32988  0.30906  0.29347  0.28087  0.27029

  WITH EQUILIBRIUM REACTIONS

 Cp, KJ/(KG)(K)    1.7819   1.7240   1.7240   1.6650   1.6387   1.6194   1.6040   1.5914
 CONDUCTIVITY      0.8750   0.7461   0.7461   0.6207   0.5671   0.5285   0.4983   0.4737
 PRANDTL NUMBER    0.8515   0.8671   0.8671   0.8849   0.8931   0.8992   0.9041   0.9080

  WITH FROZEN REACTIONS

 Cp, KJ/(KG)(K)    1.7818   1.7240   1.7240   1.6650   1.6387   1.6194   1.6040   1.5914
 CONDUCTIVITY      0.8750   0.7461   0.7461   0.6207   0.5671   0.5285   0.4983   0.4737
 PRANDTL NUMBER    0.8515   0.8671   0.8671   0.8849   0.8931   0.8992   0.9041   0.9080

 PERFORMANCE PARAMETERS

 Ae/At                      1.0000   1.0000   1.2000   1.4000   1.6000   1.8000   2.0000
 CSTAR, M/SEC                913.2    913.2    913.2    913.2    913.2    913.2    913.2
 CF                         0.7033   0.7033   0.9887   1.0889   1.1561   1.2065   1.2464
 Ivac, M/SEC                1143.5   1143.5   1209.7   1252.9   1285.5   1311.3   1332.5
 Isp, M/SEC                  642.3    642.3    902.9    994.4   1055.8   1101.8   1138.2


 MOLE FRACTIONS

 H2O              0.71747  0.71747  0.71747  0.71747  0.71747  0.71747  0.71747  0.71747
 *O2              0.28253  0.28253  0.28253  0.28253  0.28253  0.28253  0.28253  0.28253

  * THERMODYNAMIC PROPERTIES FITTED TO 20000.K

    PRODUCTS WHICH WERE CONSIDERED BUT WHOSE MOLE FRACTIONS
    WERE LESS THAN 5.000000E-06 FOR ALL ASSIGNED CONDITIONS

 *H              HO2             *H2             H2O2            *O             
 *OH             O3              H2O(cr)         H2O(L)         

 NOTE. WEIGHT FRACTION OF FUEL IN TOTAL FUELS AND OF OXIDANT IN TOTAL OXIDANTS





           THEORETICAL ROCKET PERFORMANCE ASSUMING FROZEN COMPOSITION

 Pin =    20.0 PSIA
 CASE =                

             REACTANT                    WT FRACTION      ENERGY      TEMP
                                          (SEE NOTE)     KJ/KG-MOL      K  
 FUEL        H2O(L)                       1.0000000   -285841.390    298.000
 OXIDANT     H2O2(L)                      1.0000000   -187793.400    298.000

 O/F=    7.00000  %FUEL= 12.500000  R,EQ.RATIO= 0.559419  PHI,EQ.RATIO= 0.000000

                 CHAMBER   THROAT     EXIT     EXIT     EXIT     EXIT     EXIT     EXIT
 Pinf/P            1.0000   1.8218   1.8218   3.5725   4.9454   6.3626   7.8467   9.4012
 P, BAR            1.3789  0.75691  0.75691  0.38599  0.27883  0.21673  0.17574  0.14668
 T, K              968.23   850.56   850.56   731.73   679.18   640.55   609.78   584.22
 RHO, KG/CU M    3.7626-1 2.3510-1 2.3510-1 1.3936-1 1.0846-1 8.9386-2 7.6139-2 6.6329-2
 H, KJ/KG        -6814.16 -7020.42 -7020.42 -7221.79 -7308.60 -7371.52 -7421.12 -7461.96
 U, KJ/KG        -7180.65 -7342.37 -7342.37 -7498.76 -7565.68 -7613.98 -7651.94 -7683.10
 G, KJ/KG        -17252.4 -16190.2 -16190.2 -15110.4 -14630.7 -14277.2 -13995.0 -13760.3
 S, KJ/(KG)(K)    10.7808  10.7808  10.7808  10.7808  10.7808  10.7808  10.7808  10.7808

 M, (1/n)          21.966   21.966   21.966   21.966   21.966   21.966   21.966   21.966
 Cp, KJ/(KG)(K)    1.7818   1.7240   1.7240   1.6650   1.6387   1.6194   1.6040   1.5914
 GAMMAs            1.2697   1.2813   1.2813   1.2942   1.3004   1.3050   1.3089   1.3121
 SON VEL,M/SEC      682.2    642.3    642.3    598.7    578.2    562.5    549.6    538.7
 MACH NUMBER        0.000    1.000    1.000    1.508    1.720    1.877    2.005    2.113

 TRANSPORT PROPERTIES (GASES ONLY)
   CONDUCTIVITY IN UNITS OF MILLIWATTS/(CM)(K)

 VISC,MILLIPOISE  0.41811  0.37529  0.37529  0.32988  0.30906  0.29347  0.28087  0.27029

  WITH FROZEN REACTIONS

 Cp, KJ/(KG)(K)    1.7818   1.7240   1.7240   1.6650   1.6387   1.6194   1.6040   1.5914
 CONDUCTIVITY      0.8750   0.7461   0.7461   0.6207   0.5671   0.5285   0.4983   0.4737
 PRANDTL NUMBER    0.8515   0.8671   0.8671   0.8849   0.8931   0.8992   0.9041   0.9080

 PERFORMANCE PARAMETERS

 Ae/At                      1.0000   1.0000   1.2000   1.4000   1.6000   1.8000   2.0000
 CSTAR, M/SEC                913.2    913.2    913.2    913.2    913.2    913.2    913.2
 CF                         0.7033   0.7033   0.9887   1.0889   1.1561   1.2065   1.2464
 Ivac, M/SEC                1143.5   1143.5   1209.7   1252.9   1285.5   1311.3   1332.5
 Isp, M/SEC                  642.3    642.3    902.9    994.4   1055.8   1101.8   1138.2

 MOLE FRACTIONS

 H2O             0.71747   *O2             0.28253

  * THERMODYNAMIC PROPERTIES FITTED TO 20000.K

    PRODUCTS WHICH WERE CONSIDERED BUT WHOSE MOLE FRACTIONS
    WERE LESS THAN 5.000000E-06 FOR ALL ASSIGNED CONDITIONS

 *H              HO2             *H2             H2O2            *O             
 *OH             O3              H2O(cr)         H2O(L)         

 NOTE. WEIGHT FRACTION OF FUEL IN TOTAL FUELS AND OF OXIDANT IN TOTAL OXIDANTS






 POINT ITN      T            H           O 
   1    1     968.226     -20.450     -13.508
 Pinf/Pt = 1.814028
   2    3     851.365     -22.555     -13.639
 Pinf/Pt = 1.821769
   2    2     850.569     -22.571     -13.640
 Pinf/Pt = 1.821821
   2    1     850.564     -22.571     -13.640
   3    1     850.564     -22.571     -13.640
   4    3     739.989     -25.177     -13.787
   4    2     731.577     -25.407     -13.800
   4    2     731.730     -25.403     -13.800
   5    3     687.937     -26.693     -13.867
   5    2     679.085     -26.974     -13.882
   5    2     679.179     -26.971     -13.882
   6    3     647.594     -28.036     -13.936
   6    2     640.512     -28.289     -13.948
   6    1     640.554     -28.287     -13.948
   7    3     614.377     -29.273     -13.996
   7    2     609.764     -29.456     -14.005
   7    1     609.778     -29.455     -14.005
   8    3     582.706     -30.584     -14.059
   8    2     584.217     -30.519     -14.056





              THEORETICAL ROCKET PERFORMANCE ASSUMING EQUILIBRIUM

           COMPOSITION DURING EXPANSION FROM INFINITE AREA COMBUSTOR

 Pin =    30.0 PSIA
 CASE =                

             REACTANT                    WT FRACTION      ENERGY      TEMP
                                          (SEE NOTE)     KJ/KG-MOL      K  
 FUEL        H2O(L)                       1.0000000   -285841.390    298.000
 OXIDANT     H2O2(L)                      1.0000000   -187793.400    298.000

 O/F=    7.00000  %FUEL= 12.500000  R,EQ.RATIO= 0.559419  PHI,EQ.RATIO= 0.000000

                 CHAMBER   THROAT     EXIT     EXIT     EXIT     EXIT     EXIT     EXIT
 Pinf/P            1.0000   1.8218   1.8218   3.5725   4.9454   6.3626   7.8467   9.4012
 P, BAR            2.0684   1.1354   1.1354  0.57899  0.41825  0.32509  0.26360  0.22002
 T, K              968.23   850.56   850.56   731.73   679.18   640.55   609.78   584.22
 RHO, KG/CU M    5.6439-1 3.5265-1 3.5265-1 2.0904-1 1.6269-1 1.3408-1 1.1421-1 9.9494-2
 H, KJ/KG        -6814.16 -7020.42 -7020.42 -7221.79 -7308.60 -7371.52 -7421.12 -7461.96
 U, KJ/KG        -7180.65 -7342.37 -7342.37 -7498.77 -7565.68 -7613.98 -7651.94 -7683.10
 G, KJ/KG        -17103.8 -16059.6 -16059.6 -14998.1 -14526.5 -14178.9 -13901.4 -13670.6
 S, KJ/(KG)(K)    10.6273  10.6273  10.6273  10.6273  10.6273  10.6273  10.6273  10.6273

 M, (1/n)          21.966   21.966   21.966   21.966   21.966   21.966   21.966   21.966
 (dLV/dLP)t      -1.00000 -1.00000 -1.00000 -1.00000 -1.00000 -1.00000 -1.00000 -1.00000
 (dLV/dLT)p        1.0000   1.0000   1.0000   1.0000   1.0000   1.0000   1.0000   1.0000
 Cp, KJ/(KG)(K)    1.7819   1.7240   1.7240   1.6650   1.6387   1.6194   1.6040   1.5914
 GAMMAs            1.2697   1.2813   1.2813   1.2942   1.3004   1.3050   1.3089   1.3121
 SON VEL,M/SEC      682.2    642.3    642.3    598.7    578.2    562.5    549.6    538.7
 MACH NUMBER        0.000    1.000    1.000    1.508    1.720    1.877    2.005    2.113

 TRANSPORT PROPERTIES (GASES ONLY)
   CONDUCTIVITY IN UNITS OF MILLIWATTS/(CM)(K)

 VISC,MILLIPOISE  0.41811  0.37529  0.37529  0.32988  0.30906  0.29347  0.28087  0.27029

  WITH EQUILIBRIUM REACTIONS

 Cp, KJ/(KG)(K)    1.7819   1.7240   1.7240   1.6650   1.6387   1.6194   1.6040   1.5914
 CONDUCTIVITY      0.8750   0.7461   0.7461   0.6207   0.5671   0.5285   0.4983   0.4737
 PRANDTL NUMBER    0.8515   0.8671   0.8671   0.8849   0.8931   0.8992   0.9041   0.9080

  WITH FROZEN REACTIONS

 Cp, KJ/(KG)(K)    1.7818   1.7240   1.7240   1.6650   1.6387   1.6194   1.6040   1.5914
 CONDUCTIVITY      0.8750   0.7461   0.7461   0.6207   0.5671   0.5285   0.4983   0.4737
 PRANDTL NUMBER    0.8515   0.8671   0.8671   0.8849   0.8931   0.8992   0.9041   0.9080

 PERFORMANCE PARAMETERS

 Ae/At                      1.0000   1.0000   1.2000   1.4000   1.6000   1.8000   2.0000
 CSTAR, M/SEC                913.2    913.2    913.2    913.2    913.2    913.2    913.2
 CF                         0.7033   0.7033   0.9887   1.0889   1.1561   1.2065   1.2464
 Ivac, M/SEC                1143.5   1143.5   1209.7   1252.9   1285.5   1311.3   1332.5
 Isp, M/SEC                  642.3    642.3    902.9    994.4   1055.8   1101.8   1138.2


 MOLE FRACTIONS

 H2O              0.71747  0.71747  0.71747  0.71747  0.71747  0.71747  0.71747  0.71747
 *O2              0.28253  0.28253  0.28253  0.28253  0.28253  0.28253  0.28253  0.28253

  * THERMODYNAMIC PROPERTIES FITTED TO 20000.K

    PRODUCTS WHICH WERE CONSIDERED BUT WHOSE MOLE FRACTIONS
    WERE LESS THAN 5.000000E-06 FOR ALL ASSIGNED CONDITIONS

 *H              HO2             *H2             H2O2            *O             
 *OH             O3              H2O(cr)         H2O(L)         

 NOTE. WEIGHT FRACTION OF FUEL IN TOTAL FUELS AND OF OXIDANT IN TOTAL OXIDANTS





           THEORETICAL ROCKET PERFORMANCE ASSUMING FROZEN COMPOSITION

 Pin =    30.0 PSIA
 CASE =                

             REACTANT                    WT FRACTION      ENERGY      TEMP
                                          (SEE NOTE)     KJ/KG-MOL      K  
 FUEL        H2O(L)                       1.0000000   -285841.390    298.000
 OXIDANT     H2O2(L)                      1.0000000   -187793.400    298.000

 O/F=    7.00000  %FUEL= 12.500000  R,EQ.RATIO= 0.559419  PHI,EQ.RATIO= 0.000000

                 CHAMBER   THROAT     EXIT     EXIT     EXIT     EXIT     EXIT     EXIT
 Pinf/P            1.0000   1.8218   1.8218   3.5725   4.9454   6.3626   7.8467   9.4012
 P, BAR            2.0684   1.1354   1.1354  0.57899  0.41825  0.32509  0.26360  0.22002
 T, K              968.23   850.56   850.56   731.73   679.18   640.55   609.78   584.22
 RHO, KG/CU M    5.6439-1 3.5265-1 3.5265-1 2.0904-1 1.6269-1 1.3408-1 1.1421-1 9.9494-2
 H, KJ/KG        -6814.16 -7020.42 -7020.42 -7221.79 -7308.60 -7371.52 -7421.12 -7461.96
 U, KJ/KG        -7180.65 -7342.37 -7342.37 -7498.76 -7565.68 -7613.98 -7651.94 -7683.10
 G, KJ/KG        -17103.8 -16059.6 -16059.6 -14998.1 -14526.4 -14178.9 -13901.4 -13670.6
 S, KJ/(KG)(K)    10.6273  10.6273  10.6273  10.6273  10.6273  10.6273  10.6273  10.6273

 M, (1/n)          21.966   21.966   21.966   21.966   21.966   21.966   21.966   21.966
 Cp, KJ/(KG)(K)    1.7818   1.7240   1.7240   1.6650   1.6387   1.6194   1.6040   1.5914
 GAMMAs            1.2697   1.2813   1.2813   1.2942   1.3004   1.3050   1.3089   1.3121
 SON VEL,M/SEC      682.2    642.3    642.3    598.7    578.2    562.5    549.6    538.7
 MACH NUMBER        0.000    1.000    1.000    1.508    1.720    1.877    2.005    2.113

 TRANSPORT PROPERTIES (GASES ONLY)
   CONDUCTIVITY IN UNITS OF MILLIWATTS/(CM)(K)

 VISC,MILLIPOISE  0.41811  0.37529  0.37529  0.32988  0.30906  0.29347  0.28087  0.27029

  WITH FROZEN REACTIONS

 Cp, KJ/(KG)(K)    1.7818   1.7240   1.7240   1.6650   1.6387   1.6194   1.6040   1.5914
 CONDUCTIVITY      0.8750   0.7461   0.7461   0.6207   0.5671   0.5285   0.4983   0.4737
 PRANDTL NUMBER    0.8515   0.8671   0.8671   0.8849   0.8931   0.8992   0.9041   0.9080

 PERFORMANCE PARAMETERS

 Ae/At                      1.0000   1.0000   1.2000   1.4000   1.6000   1.8000   2.0000
 CSTAR, M/SEC                913.2    913.2    913.2    913.2    913.2    913.2    913.2
 CF                         0.7033   0.7033   0.9887   1.0889   1.1561   1.2065   1.2464
 Ivac, M/SEC                1143.5   1143.5   1209.7   1252.9   1285.5   1311.3   1332.5
 Isp, M/SEC                  642.3    642.3    902.9    994.4   1055.8   1101.8   1138.2

 MOLE FRACTIONS

 H2O             0.71747   *O2             0.28253

  * THERMODYNAMIC PROPERTIES FITTED TO 20000.K

    PRODUCTS WHICH WERE CONSIDERED BUT WHOSE MOLE FRACTIONS
    WERE LESS THAN 5.000000E-06 FOR ALL ASSIGNED CONDITIONS

 *H              HO2             *H2             H2O2            *O             
 *OH             O3              H2O(cr)         H2O(L)         

 NOTE. WEIGHT FRACTION OF FUEL IN TOTAL FUELS AND OF OXIDANT IN TOTAL OXIDANTS






 POINT ITN      T            H           O 
   1    1     968.226     -20.379     -13.364
 Pinf/Pt = 1.814028
   2    3     851.365     -22.483     -13.495
 Pinf/Pt = 1.821769
   2    2     850.569     -22.499     -13.496
 Pinf/Pt = 1.821821
   2    1     850.564     -22.499     -13.496
   3    1     850.564     -22.499     -13.496
   4    3     739.989     -25.105     -13.644
   4    2     731.577     -25.335     -13.656
   4    2     731.730     -25.331     -13.656
   5    3     687.937     -26.621     -13.724
   5    2     679.085     -26.902     -13.738
   5    2     679.179     -26.899     -13.738
   6    3     647.594     -27.964     -13.792
   6    2     640.512     -28.217     -13.804
   6    1     640.554     -28.215     -13.804
   7    3     614.377     -29.201     -13.853
   7    2     609.764     -29.384     -13.861
   7    1     609.778     -29.383     -13.861
   8    3     582.706     -30.513     -13.915
   8    2     584.217     -30.447     -13.912





              THEORETICAL ROCKET PERFORMANCE ASSUMING EQUILIBRIUM

           COMPOSITION DURING EXPANSION FROM INFINITE AREA COMBUSTOR

 Pin =    40.0 PSIA
 CASE =                

             REACTANT                    WT FRACTION      ENERGY      TEMP
                                          (SEE NOTE)     KJ/KG-MOL      K  
 FUEL        H2O(L)                       1.0000000   -285841.390    298.000
 OXIDANT     H2O2(L)                      1.0000000   -187793.400    298.000

 O/F=    7.00000  %FUEL= 12.500000  R,EQ.RATIO= 0.559419  PHI,EQ.RATIO= 0.000000

                 CHAMBER   THROAT     EXIT     EXIT     EXIT     EXIT     EXIT     EXIT
 Pinf/P            1.0000   1.8218   1.8218   3.5725   4.9454   6.3626   7.8467   9.4012
 P, BAR            2.7579   1.5138   1.5138  0.77198  0.55766  0.43345  0.35147  0.29336
 T, K              968.23   850.56   850.56   731.73   679.18   640.55   609.78   584.22
 RHO, KG/CU M    7.5252-1 4.7020-1 4.7020-1 2.7872-1 2.1692-1 1.7877-1 1.5228-1 1.3266-1
 H, KJ/KG        -6814.16 -7020.42 -7020.42 -7221.79 -7308.60 -7371.52 -7421.12 -7461.96
 U, KJ/KG        -7180.65 -7342.37 -7342.37 -7498.77 -7565.68 -7613.98 -7651.94 -7683.10
 G, KJ/KG        -16998.4 -15967.0 -15967.0 -14918.4 -14452.5 -14109.1 -13835.0 -13607.0
 S, KJ/(KG)(K)    10.5184  10.5184  10.5184  10.5184  10.5184  10.5184  10.5184  10.5184

 M, (1/n)          21.966   21.966   21.966   21.966   21.966   21.966   21.966   21.966
 (dLV/dLP)t      -1.00000 -1.00000 -1.00000 -1.00000 -1.00000 -1.00000 -1.00000 -1.00000
 (dLV/dLT)p        1.0000   1.0000   1.0000   1.0000   1.0000   1.0000   1.0000   1.0000
 Cp, KJ/(KG)(K)    1.7819   1.7240   1.7240   1.6650   1.6387   1.6194   1.6040   1.5914
 GAMMAs            1.2697   1.2813   1.2813   1.2942   1.3004   1.3050   1.3089   1.3121
 SON VEL,M/SEC      682.2    642.3    642.3    598.7    578.2    562.5    549.6    538.7
 MACH NUMBER        0.000    1.000    1.000    1.508    1.720    1.877    2.005    2.113

 TRANSPORT PROPERTIES (GASES ONLY)
   CONDUCTIVITY IN UNITS OF MILLIWATTS/(CM)(K)

 VISC,MILLIPOISE  0.41811  0.37529  0.37529  0.32988  0.30906  0.29347  0.28087  0.27029

  WITH EQUILIBRIUM REACTIONS

 Cp, KJ/(KG)(K)    1.7819   1.7240   1.7240   1.6650   1.6387   1.6194   1.6040   1.5914
 CONDUCTIVITY      0.8750   0.7461   0.7461   0.6207   0.5671   0.5285   0.4983   0.4737
 PRANDTL NUMBER    0.8515   0.8671   0.8671   0.8849   0.8931   0.8992   0.9041   0.9080

  WITH FROZEN REACTIONS

 Cp, KJ/(KG)(K)    1.7818   1.7240   1.7240   1.6650   1.6387   1.6194   1.6040   1.5914
 CONDUCTIVITY      0.8750   0.7461   0.7461   0.6207   0.5671   0.5285   0.4983   0.4737
 PRANDTL NUMBER    0.8515   0.8671   0.8671   0.8849   0.8931   0.8992   0.9041   0.9080

 PERFORMANCE PARAMETERS

 Ae/At                      1.0000   1.0000   1.2000   1.4000   1.6000   1.8000   2.0000
 CSTAR, M/SEC                913.2    913.2    913.2    913.2    913.2    913.2    913.2
 CF                         0.7033   0.7033   0.9887   1.0889   1.1561   1.2065   1.2464
 Ivac, M/SEC                1143.5   1143.5   1209.7   1252.9   1285.5   1311.3   1332.5
 Isp, M/SEC                  642.3    642.3    902.9    994.4   1055.8   1101.8   1138.2


 MOLE FRACTIONS

 H2O              0.71747  0.71747  0.71747  0.71747  0.71747  0.71747  0.71747  0.71747
 *O2              0.28253  0.28253  0.28253  0.28253  0.28253  0.28253  0.28253  0.28253

  * THERMODYNAMIC PROPERTIES FITTED TO 20000.K

    PRODUCTS WHICH WERE CONSIDERED BUT WHOSE MOLE FRACTIONS
    WERE LESS THAN 5.000000E-06 FOR ALL ASSIGNED CONDITIONS

 *H              HO2             *H2             H2O2            *O             
 *OH             O3              H2O(cr)         H2O(L)         

 NOTE. WEIGHT FRACTION OF FUEL IN TOTAL FUELS AND OF OXIDANT IN TOTAL OXIDANTS





           THEORETICAL ROCKET PERFORMANCE ASSUMING FROZEN COMPOSITION

 Pin =    40.0 PSIA
 CASE =                

             REACTANT                    WT FRACTION      ENERGY      TEMP
                                          (SEE NOTE)     KJ/KG-MOL      K  
 FUEL        H2O(L)                       1.0000000   -285841.390    298.000
 OXIDANT     H2O2(L)                      1.0000000   -187793.400    298.000

 O/F=    7.00000  %FUEL= 12.500000  R,EQ.RATIO= 0.559419  PHI,EQ.RATIO= 0.000000

                 CHAMBER   THROAT     EXIT     EXIT     EXIT     EXIT     EXIT     EXIT
 Pinf/P            1.0000   1.8218   1.8218   3.5725   4.9454   6.3626   7.8467   9.4012
 P, BAR            2.7579   1.5138   1.5138  0.77198  0.55766  0.43345  0.35147  0.29336
 T, K              968.23   850.56   850.56   731.73   679.18   640.55   609.78   584.22
 RHO, KG/CU M    7.5252-1 4.7020-1 4.7020-1 2.7872-1 2.1692-1 1.7877-1 1.5228-1 1.3266-1
 H, KJ/KG        -6814.16 -7020.42 -7020.42 -7221.79 -7308.60 -7371.52 -7421.12 -7461.96
 U, KJ/KG        -7180.65 -7342.37 -7342.37 -7498.76 -7565.68 -7613.98 -7651.94 -7683.10
 G, KJ/KG        -16998.4 -15967.0 -15967.0 -14918.4 -14452.5 -14109.1 -13835.0 -13607.0
 S, KJ/(KG)(K)    10.5184  10.5184  10.5184  10.5184  10.5184  10.5184  10.5184  10.5184

 M, (1/n)          21.966   21.966   21.966   21.966   21.966   21.966   21.966   21.966
 Cp, KJ/(KG)(K)    1.7818   1.7240   1.7240   1.6650   1.6387   1.6194   1.6040   1.5914
 GAMMAs            1.2697   1.2813   1.2813   1.2942   1.3004   1.3050   1.3089   1.3121
 SON VEL,M/SEC      682.2    642.3    642.3    598.7    578.2    562.5    549.6    538.7
 MACH NUMBER        0.000    1.000    1.000    1.508    1.720    1.877    2.005    2.113

 TRANSPORT PROPERTIES (GASES ONLY)
   CONDUCTIVITY IN UNITS OF MILLIWATTS/(CM)(K)

 VISC,MILLIPOISE  0.41811  0.37529  0.37529  0.32988  0.30906  0.29347  0.28087  0.27029

  WITH FROZEN REACTIONS

 Cp, KJ/(KG)(K)    1.7818   1.7240   1.7240   1.6650   1.6387   1.6194   1.6040   1.5914
 CONDUCTIVITY      0.8750   0.7461   0.7461   0.6207   0.5671   0.5285   0.4983   0.4737
 PRANDTL NUMBER    0.8515   0.8671   0.8671   0.8849   0.8931   0.8992   0.9041   0.9080

 PERFORMANCE PARAMETERS

 Ae/At                      1.0000   1.0000   1.2000   1.4000   1.6000   1.8000   2.0000
 CSTAR, M/SEC                913.2    913.2    913.2    913.2    913.2    913.2    913.2
 CF                         0.7033   0.7033   0.9887   1.0889   1.1561   1.2065   1.2464
 Ivac, M/SEC                1143.5   1143.5   1209.7   1252.9   1285.5   1311.3   1332.5
 Isp, M/SEC                  642.3    642.3    902.9    994.4   1055.8   1101.8   1138.2

 MOLE FRACTIONS

 H2O             0.71747   *O2             0.28253

  * THERMODYNAMIC PROPERTIES FITTED TO 20000.K

    PRODUCTS WHICH WERE CONSIDERED BUT WHOSE MOLE FRACTIONS
    WERE LESS THAN 5.000000E-06 FOR ALL ASSIGNED CONDITIONS

 *H              HO2             *H2             H2O2            *O             
 *OH             O3              H2O(cr)         H2O(L)         

 NOTE. WEIGHT FRACTION OF FUEL IN TOTAL FUELS AND OF OXIDANT IN TOTAL OXIDANTS






 POINT ITN      T            H           O 
   1    1     968.226     -20.323     -13.252
 Pinf/Pt = 1.814029
   2    3     851.365     -22.427     -13.384
 Pinf/Pt = 1.821769
   2    2     850.569     -22.443     -13.385
 Pinf/Pt = 1.821821
   2    1     850.564     -22.443     -13.385
   3    1     850.564     -22.443     -13.385
   4    3     739.989     -25.049     -13.532
   4    2     731.577     -25.280     -13.544
   4    2     731.730     -25.275     -13.544
   5    3     687.937     -26.565     -13.612
   5    2     679.085     -26.846     -13.626
   5    2     679.179     -26.843     -13.626
   6    3     647.594     -27.908     -13.680
   6    2     640.512     -28.161     -13.693
   6    1     640.554     -28.159     -13.693
   7    3     614.377     -29.145     -13.741
   7    2     609.764     -29.328     -13.750
   7    1     609.778     -29.327     -13.750
   8    3     582.706     -30.457     -13.804
   8    2     584.217     -30.391     -13.801





              THEORETICAL ROCKET PERFORMANCE ASSUMING EQUILIBRIUM

           COMPOSITION DURING EXPANSION FROM INFINITE AREA COMBUSTOR

 Pin =    50.0 PSIA
 CASE =                

             REACTANT                    WT FRACTION      ENERGY      TEMP
                                          (SEE NOTE)     KJ/KG-MOL      K  
 FUEL        H2O(L)                       1.0000000   -285841.390    298.000
 OXIDANT     H2O2(L)                      1.0000000   -187793.400    298.000

 O/F=    7.00000  %FUEL= 12.500000  R,EQ.RATIO= 0.559419  PHI,EQ.RATIO= 0.000000

                 CHAMBER   THROAT     EXIT     EXIT     EXIT     EXIT     EXIT     EXIT
 Pinf/P            1.0000   1.8218   1.8218   3.5725   4.9454   6.3626   7.8467   9.4012
 P, BAR            3.4474   1.8923   1.8923  0.96498  0.69708  0.54181  0.43934  0.36669
 T, K              968.23   850.56   850.56   731.73   679.18   640.55   609.78   584.22
 RHO, KG/CU M    9.4064-1 5.8775-1 5.8775-1 3.4840-1 2.7115-1 2.2346-1 1.9035-1 1.6582-1
 H, KJ/KG        -6814.16 -7020.42 -7020.42 -7221.79 -7308.60 -7371.52 -7421.12 -7461.96
 U, KJ/KG        -7180.65 -7342.37 -7342.37 -7498.77 -7565.68 -7613.98 -7651.94 -7683.10
 G, KJ/KG        -16916.6 -15895.2 -15895.2 -14856.6 -14395.1 -14055.0 -13783.5 -13557.7
 S, KJ/(KG)(K)    10.4340  10.4340  10.4340  10.4340  10.4340  10.4340  10.4340  10.4340

 M, (1/n)          21.966   21.966   21.966   21.966   21.966   21.966   21.966   21.966
 (dLV/dLP)t      -1.00000 -1.00000 -1.00000 -1.00000 -1.00000 -1.00000 -1.00000 -1.00000
 (dLV/dLT)p        1.0000   1.0000   1.0000   1.0000   1.0000   1.0000   1.0000   1.0000
 Cp, KJ/(KG)(K)    1.7819   1.7240   1.7240   1.6650   1.6387   1.6194   1.6040   1.5914
 GAMMAs            1.2697   1.2813   1.2813   1.2942   1.3004   1.3050   1.3089   1.3121
 SON VEL,M/SEC      682.2    642.3    642.3    598.7    578.2    562.5    549.6    538.7
 MACH NUMBER        0.000    1.000    1.000    1.508    1.720    1.877    2.005    2.113

 TRANSPORT PROPERTIES (GASES ONLY)
   CONDUCTIVITY IN UNITS OF MILLIWATTS/(CM)(K)

 VISC,MILLIPOISE  0.41811  0.37529  0.37529  0.32988  0.30906  0.29347  0.28087  0.27029

  WITH EQUILIBRIUM REACTIONS

 Cp, KJ/(KG)(K)    1.7819   1.7240   1.7240   1.6650   1.6387   1.6194   1.6040   1.5914
 CONDUCTIVITY      0.8750   0.7461   0.7461   0.6207   0.5671   0.5285   0.4983   0.4737
 PRANDTL NUMBER    0.8515   0.8671   0.8671   0.8849   0.8931   0.8992   0.9041   0.9080

  WITH FROZEN REACTIONS

 Cp, KJ/(KG)(K)    1.7818   1.7240   1.7240   1.6650   1.6387   1.6194   1.6040   1.5914
 CONDUCTIVITY      0.8750   0.7461   0.7461   0.6207   0.5671   0.5285   0.4983   0.4737
 PRANDTL NUMBER    0.8515   0.8671   0.8671   0.8849   0.8931   0.8992   0.9041   0.9080

 PERFORMANCE PARAMETERS

 Ae/At                      1.0000   1.0000   1.2000   1.4000   1.6000   1.8000   2.0000
 CSTAR, M/SEC                913.2    913.2    913.2    913.2    913.2    913.2    913.2
 CF                         0.7033   0.7033   0.9887   1.0889   1.1561   1.2065   1.2464
 Ivac, M/SEC                1143.5   1143.5   1209.7   1252.9   1285.5   1311.3   1332.5
 Isp, M/SEC                  642.3    642.3    902.9    994.4   1055.8   1101.8   1138.2


 MOLE FRACTIONS

 H2O              0.71747  0.71747  0.71747  0.71747  0.71747  0.71747  0.71747  0.71747
 *O2              0.28253  0.28253  0.28253  0.28253  0.28253  0.28253  0.28253  0.28253

  * THERMODYNAMIC PROPERTIES FITTED TO 20000.K

    PRODUCTS WHICH WERE CONSIDERED BUT WHOSE MOLE FRACTIONS
    WERE LESS THAN 5.000000E-06 FOR ALL ASSIGNED CONDITIONS

 *H              HO2             *H2             H2O2            *O             
 *OH             O3              H2O(cr)         H2O(L)         

 NOTE. WEIGHT FRACTION OF FUEL IN TOTAL FUELS AND OF OXIDANT IN TOTAL OXIDANTS





           THEORETICAL ROCKET PERFORMANCE ASSUMING FROZEN COMPOSITION

 Pin =    50.0 PSIA
 CASE =                

             REACTANT                    WT FRACTION      ENERGY      TEMP
                                          (SEE NOTE)     KJ/KG-MOL      K  
 FUEL        H2O(L)                       1.0000000   -285841.390    298.000
 OXIDANT     H2O2(L)                      1.0000000   -187793.400    298.000

 O/F=    7.00000  %FUEL= 12.500000  R,EQ.RATIO= 0.559419  PHI,EQ.RATIO= 0.000000

                 CHAMBER   THROAT     EXIT     EXIT     EXIT     EXIT     EXIT     EXIT
 Pinf/P            1.0000   1.8218   1.8218   3.5725   4.9454   6.3626   7.8467   9.4012
 P, BAR            3.4474   1.8923   1.8923  0.96498  0.69708  0.54181  0.43934  0.36669
 T, K              968.23   850.56   850.56   731.73   679.18   640.55   609.78   584.22
 RHO, KG/CU M    9.4064-1 5.8775-1 5.8775-1 3.4840-1 2.7115-1 2.2347-1 1.9035-1 1.6582-1
 H, KJ/KG        -6814.16 -7020.42 -7020.42 -7221.79 -7308.60 -7371.52 -7421.12 -7461.96
 U, KJ/KG        -7180.65 -7342.37 -7342.37 -7498.76 -7565.68 -7613.98 -7651.94 -7683.10
 G, KJ/KG        -16916.6 -15895.2 -15895.2 -14856.6 -14395.1 -14055.0 -13783.5 -13557.7
 S, KJ/(KG)(K)    10.4340  10.4340  10.4340  10.4340  10.4340  10.4340  10.4340  10.4340

 M, (1/n)          21.966   21.966   21.966   21.966   21.966   21.966   21.966   21.966
 Cp, KJ/(KG)(K)    1.7818   1.7240   1.7240   1.6650   1.6387   1.6194   1.6040   1.5914
 GAMMAs            1.2697   1.2813   1.2813   1.2942   1.3004   1.3050   1.3089   1.3121
 SON VEL,M/SEC      682.2    642.3    642.3    598.7    578.2    562.5    549.6    538.7
 MACH NUMBER        0.000    1.000    1.000    1.508    1.720    1.877    2.005    2.113

 TRANSPORT PROPERTIES (GASES ONLY)
   CONDUCTIVITY IN UNITS OF MILLIWATTS/(CM)(K)

 VISC,MILLIPOISE  0.41811  0.37529  0.37529  0.32988  0.30906  0.29347  0.28087  0.27029

  WITH FROZEN REACTIONS

 Cp, KJ/(KG)(K)    1.7818   1.7240   1.7240   1.6650   1.6387   1.6194   1.6040   1.5914
 CONDUCTIVITY      0.8750   0.7461   0.7461   0.6207   0.5671   0.5285   0.4983   0.4737
 PRANDTL NUMBER    0.8515   0.8671   0.8671   0.8849   0.8931   0.8992   0.9041   0.9080

 PERFORMANCE PARAMETERS

 Ae/At                      1.0000   1.0000   1.2000   1.4000   1.6000   1.8000   2.0000
 CSTAR, M/SEC                913.2    913.2    913.2    913.2    913.2    913.2    913.2
 CF                         0.7033   0.7033   0.9887   1.0889   1.1561   1.2065   1.2464
 Ivac, M/SEC                1143.5   1143.5   1209.7   1252.9   1285.5   1311.3   1332.5
 Isp, M/SEC                  642.3    642.3    902.9    994.4   1055.8   1101.8   1138.2

 MOLE FRACTIONS

 H2O             0.71747   *O2             0.28253

  * THERMODYNAMIC PROPERTIES FITTED TO 20000.K

    PRODUCTS WHICH WERE CONSIDERED BUT WHOSE MOLE FRACTIONS
    WERE LESS THAN 5.000000E-06 FOR ALL ASSIGNED CONDITIONS

 *H              HO2             *H2             H2O2            *O             
 *OH             O3              H2O(cr)         H2O(L)         

 NOTE. WEIGHT FRACTION OF FUEL IN TOTAL FUELS AND OF OXIDANT IN TOTAL OXIDANTS






 O/F =   7.200000

                       EFFECTIVE FUEL     EFFECTIVE OXIDANT        MIXTURE
 ENTHALPY                  h(2)/R              h(1)/R               h0/R
 (KG-MOL)(K)/KG       -0.19083035E+04     -0.66401406E+03     -0.81575667E+03

 KG-FORM.WT./KG             bi(2)               bi(1)               b0i
  *H                   0.11101687E+00      0.58798142E-01      0.65166280E-01
  *O                   0.55508435E-01      0.58798142E-01      0.58396959E-01

 POINT ITN      T            H           O 
   1    2     975.684     -20.446     -13.719
 Pinf/Pt = 1.813642
   2    3     858.162     -22.529     -13.850
 Pinf/Pt = 1.821380
   2    2     857.362     -22.545     -13.851
 Pinf/Pt = 1.821433
   2    1     857.356     -22.545     -13.851
   3    1     857.356     -22.545     -13.851
   4    3     746.077     -25.126     -13.997
   4    2     737.651     -25.353     -14.009
   4    2     737.803     -25.348     -14.009
   5    3     693.679     -26.627     -14.077
   5    2     684.824     -26.903     -14.091
   5    2     684.918     -26.900     -14.091
   6    3     653.062     -27.956     -14.144
   6    2     645.997     -28.204     -14.157
   6    1     646.039     -28.203     -14.157
   7    3     619.613     -29.182     -14.205
   7    2     615.042     -29.359     -14.214
   7    1     615.056     -29.359     -14.214
   8    3     587.777     -30.477     -14.267
   8    2     589.318     -30.411     -14.264





              THEORETICAL ROCKET PERFORMANCE ASSUMING EQUILIBRIUM

           COMPOSITION DURING EXPANSION FROM INFINITE AREA COMBUSTOR

 Pin =    20.0 PSIA
 CASE =                

             REACTANT                    WT FRACTION      ENERGY      TEMP
                                          (SEE NOTE)     KJ/KG-MOL      K  
 FUEL        H2O(L)                       1.0000000   -285841.390    298.000
 OXIDANT     H2O2(L)                      1.0000000   -187793.400    298.000

 O/F=    7.20000  %FUEL= 12.195122  R,EQ.RATIO= 0.557960  PHI,EQ.RATIO= 0.000000

                 CHAMBER   THROAT     EXIT     EXIT     EXIT     EXIT     EXIT     EXIT
 Pinf/P            1.0000   1.8214   1.8214   3.5709   4.9426   6.3585   7.8410   9.3939
 P, BAR            1.3789  0.75707  0.75707  0.38617  0.27899  0.21687  0.17586  0.14679
 T, K              975.68   857.36   857.36   737.80   684.92   646.04   615.06   589.32
 RHO, KG/CU M    3.7367-1 2.3346-1 2.3346-1 1.3838-1 1.0770-1 8.8753-2 7.5597-2 6.5857-2
 H, KJ/KG        -6782.62 -6990.26 -6990.26 -7193.05 -7280.48 -7343.87 -7393.85 -7435.00
 U, KJ/KG        -7151.65 -7314.54 -7314.54 -7472.11 -7539.54 -7588.22 -7626.48 -7657.89
 G, KJ/KG        -17307.6 -16238.8 -16238.8 -15151.9 -14668.9 -14312.9 -14028.6 -13792.1
 S, KJ/(KG)(K)    10.7873  10.7873  10.7873  10.7873  10.7873  10.7873  10.7873  10.7873

 M, (1/n)          21.983   21.983   21.983   21.983   21.983   21.983   21.983   21.983
 (dLV/dLP)t      -1.00000 -1.00000 -1.00000 -1.00000 -1.00000 -1.00000 -1.00000 -1.00000
 (dLV/dLT)p        1.0000   1.0000   1.0000   1.0000   1.0000   1.0000   1.0000   1.0000
 Cp, KJ/(KG)(K)    1.7838   1.7258   1.7258   1.6665   1.6401   1.6207   1.6052   1.5924
 GAMMAs            1.2691   1.2807   1.2807   1.2936   1.2997   1.3044   1.3083   1.3115
 SON VEL,M/SEC      684.3    644.4    644.4    600.8    580.3    564.6    551.7    540.7
 MACH NUMBER        0.000    1.000    1.000    1.508    1.720    1.877    2.004    2.113

 TRANSPORT PROPERTIES (GASES ONLY)
   CONDUCTIVITY IN UNITS OF MILLIWATTS/(CM)(K)

 VISC,MILLIPOISE  0.42094  0.37802  0.37802  0.33246  0.31157  0.29592  0.28326  0.27263

  WITH EQUILIBRIUM REACTIONS

 Cp, KJ/(KG)(K)    1.7838   1.7258   1.7258   1.6665   1.6401   1.6207   1.6052   1.5924
 CONDUCTIVITY      0.8830   0.7533   0.7533   0.6270   0.5729   0.5340   0.5035   0.4787
 PRANDTL NUMBER    0.8504   0.8660   0.8660   0.8837   0.8920   0.8981   0.9030   0.9070

  WITH FROZEN REACTIONS

 Cp, KJ/(KG)(K)    1.7838   1.7258   1.7258   1.6665   1.6401   1.6207   1.6052   1.5924
 CONDUCTIVITY      0.8830   0.7533   0.7533   0.6270   0.5729   0.5340   0.5035   0.4787
 PRANDTL NUMBER    0.8504   0.8660   0.8660   0.8837   0.8920   0.8981   0.9030   0.9070

 PERFORMANCE PARAMETERS

 Ae/At                      1.0000   1.0000   1.2000   1.4000   1.6000   1.8000   2.0000
 CSTAR, M/SEC                916.5    916.5    916.5    916.5    916.5    916.5    916.5
 CF                         0.7031   0.7031   0.9885   1.0887   1.1560   1.2063   1.2463
 Ivac, M/SEC                1147.6   1147.6   1214.0   1257.5   1290.1   1316.1   1337.4
 Isp, M/SEC                  644.4    644.4    906.0    997.9   1059.5   1105.6   1142.3


 MOLE FRACTIONS

 H2O              0.71627  0.71627  0.71627  0.71627  0.71627  0.71627  0.71627  0.71627
 *O2              0.28373  0.28373  0.28373  0.28373  0.28373  0.28373  0.28373  0.28373

  * THERMODYNAMIC PROPERTIES FITTED TO 20000.K

    PRODUCTS WHICH WERE CONSIDERED BUT WHOSE MOLE FRACTIONS
    WERE LESS THAN 5.000000E-06 FOR ALL ASSIGNED CONDITIONS

 *H              HO2             *H2             H2O2            *O             
 *OH             O3              H2O(cr)         H2O(L)         

 NOTE. WEIGHT FRACTION OF FUEL IN TOTAL FUELS AND OF OXIDANT IN TOTAL OXIDANTS





           THEORETICAL ROCKET PERFORMANCE ASSUMING FROZEN COMPOSITION

 Pin =    20.0 PSIA
 CASE =                

             REACTANT                    WT FRACTION      ENERGY      TEMP
                                          (SEE NOTE)     KJ/KG-MOL      K  
 FUEL        H2O(L)                       1.0000000   -285841.390    298.000
 OXIDANT     H2O2(L)                      1.0000000   -187793.400    298.000

 O/F=    7.20000  %FUEL= 12.195122  R,EQ.RATIO= 0.557960  PHI,EQ.RATIO= 0.000000

                 CHAMBER   THROAT     EXIT     EXIT     EXIT     EXIT     EXIT     EXIT
 Pinf/P            1.0000   1.8214   1.8214   3.5709   4.9426   6.3585   7.8410   9.3939
 P, BAR            1.3789  0.75707  0.75707  0.38617  0.27899  0.21687  0.17586  0.14679
 T, K              975.68   857.36   857.36   737.80   684.92   646.04   615.05   589.32
 RHO, KG/CU M    3.7367-1 2.3346-1 2.3346-1 1.3838-1 1.0770-1 8.8753-2 7.5598-2 6.5857-2
 H, KJ/KG        -6782.62 -6990.26 -6990.26 -7193.05 -7280.48 -7343.87 -7393.85 -7434.99
 U, KJ/KG        -7151.65 -7314.54 -7314.54 -7472.11 -7539.54 -7588.22 -7626.48 -7657.89
 G, KJ/KG        -17307.6 -16238.8 -16238.8 -15151.9 -14668.9 -14312.9 -14028.6 -13792.1
 S, KJ/(KG)(K)    10.7873  10.7873  10.7873  10.7873  10.7873  10.7873  10.7873  10.7873

 M, (1/n)          21.983   21.983   21.983   21.983   21.983   21.983   21.983   21.983
 Cp, KJ/(KG)(K)    1.7838   1.7258   1.7258   1.6665   1.6401   1.6207   1.6052   1.5924
 GAMMAs            1.2691   1.2807   1.2807   1.2936   1.2997   1.3044   1.3083   1.3115
 SON VEL,M/SEC      684.3    644.4    644.4    600.8    580.3    564.6    551.7    540.7
 MACH NUMBER        0.000    1.000    1.000    1.508    1.720    1.877    2.004    2.113

 TRANSPORT PROPERTIES (GASES ONLY)
   CONDUCTIVITY IN UNITS OF MILLIWATTS/(CM)(K)

 VISC,MILLIPOISE  0.42094  0.37802  0.37802  0.33246  0.31157  0.29592  0.28326  0.27263

  WITH FROZEN REACTIONS

 Cp, KJ/(KG)(K)    1.7838   1.7258   1.7258   1.6665   1.6401   1.6207   1.6052   1.5924
 CONDUCTIVITY      0.8830   0.7533   0.7533   0.6270   0.5729   0.5340   0.5035   0.4787
 PRANDTL NUMBER    0.8504   0.8660   0.8660   0.8837   0.8920   0.8981   0.9030   0.9070

 PERFORMANCE PARAMETERS

 Ae/At                      1.0000   1.0000   1.2000   1.4000   1.6000   1.8000   2.0000
 CSTAR, M/SEC                916.5    916.5    916.5    916.5    916.5    916.5    916.5
 CF                         0.7031   0.7031   0.9885   1.0887   1.1560   1.2063   1.2463
 Ivac, M/SEC                1147.6   1147.6   1214.0   1257.5   1290.1   1316.0   1337.4
 Isp, M/SEC                  644.4    644.4    906.0    997.9   1059.5   1105.6   1142.3

 MOLE FRACTIONS

 H2O             0.71627   *O2             0.28373

  * THERMODYNAMIC PROPERTIES FITTED TO 20000.K

    PRODUCTS WHICH WERE CONSIDERED BUT WHOSE MOLE FRACTIONS
    WERE LESS THAN 5.000000E-06 FOR ALL ASSIGNED CONDITIONS

 *H              HO2             *H2             H2O2            *O             
 *OH             O3              H2O(cr)         H2O(L)         

 NOTE. WEIGHT FRACTION OF FUEL IN TOTAL FUELS AND OF OXIDANT IN TOTAL OXIDANTS






 POINT ITN      T            H           O 
   1    1     975.684     -20.344     -13.516
 Pinf/Pt = 1.813643
   2    3     858.162     -22.427     -13.647
 Pinf/Pt = 1.821380
   2    2     857.362     -22.444     -13.648
 Pinf/Pt = 1.821433
   2    1     857.356     -22.444     -13.648
   3    1     857.356     -22.444     -13.648
   4    3     746.077     -25.024     -13.794
   4    2     737.651     -25.251     -13.807
   4    2     737.803     -25.247     -13.806
   5    3     693.679     -26.526     -13.874
   5    2     684.824     -26.802     -13.888
   5    2     684.918     -26.799     -13.888
   6    3     653.062     -27.855     -13.942
   6    2     645.997     -28.103     -13.954
   6    1     646.039     -28.102     -13.954
   7    3     619.613     -29.080     -14.002
   7    2     615.042     -29.258     -14.011
   7    1     615.056     -29.257     -14.011
   8    3     587.777     -30.376     -14.065
   8    2     589.318     -30.310     -14.062





              THEORETICAL ROCKET PERFORMANCE ASSUMING EQUILIBRIUM

           COMPOSITION DURING EXPANSION FROM INFINITE AREA COMBUSTOR

 Pin =    30.0 PSIA
 CASE =                

             REACTANT                    WT FRACTION      ENERGY      TEMP
                                          (SEE NOTE)     KJ/KG-MOL      K  
 FUEL        H2O(L)                       1.0000000   -285841.390    298.000
 OXIDANT     H2O2(L)                      1.0000000   -187793.400    298.000

 O/F=    7.20000  %FUEL= 12.195122  R,EQ.RATIO= 0.557960  PHI,EQ.RATIO= 0.000000

                 CHAMBER   THROAT     EXIT     EXIT     EXIT     EXIT     EXIT     EXIT
 Pinf/P            1.0000   1.8214   1.8214   3.5709   4.9426   6.3585   7.8410   9.3939
 P, BAR            2.0684   1.1356   1.1356  0.57925  0.41848  0.32530  0.26379  0.22019
 T, K              975.68   857.36   857.36   737.80   684.92   646.04   615.06   589.32
 RHO, KG/CU M    5.6050-1 3.5020-1 3.5020-1 2.0757-1 1.6154-1 1.3313-1 1.1340-1 9.8785-2
 H, KJ/KG        -6782.62 -6990.26 -6990.26 -7193.05 -7280.48 -7343.87 -7393.85 -7435.00
 U, KJ/KG        -7151.65 -7314.54 -7314.54 -7472.11 -7539.54 -7588.22 -7626.48 -7657.89
 G, KJ/KG        -17157.9 -16107.3 -16107.3 -15038.8 -14563.8 -14213.8 -13934.3 -13701.7
 S, KJ/(KG)(K)    10.6339  10.6339  10.6339  10.6339  10.6339  10.6339  10.6339  10.6339

 M, (1/n)          21.983   21.983   21.983   21.983   21.983   21.983   21.983   21.983
 (dLV/dLP)t      -1.00000 -1.00000 -1.00000 -1.00000 -1.00000 -1.00000 -1.00000 -1.00000
 (dLV/dLT)p        1.0000   1.0000   1.0000   1.0000   1.0000   1.0000   1.0000   1.0000
 Cp, KJ/(KG)(K)    1.7838   1.7258   1.7258   1.6665   1.6401   1.6207   1.6052   1.5924
 GAMMAs            1.2691   1.2807   1.2807   1.2936   1.2997   1.3044   1.3083   1.3115
 SON VEL,M/SEC      684.3    644.4    644.4    600.8    580.3    564.6    551.7    540.7
 MACH NUMBER        0.000    1.000    1.000    1.508    1.720    1.877    2.004    2.113

 TRANSPORT PROPERTIES (GASES ONLY)
   CONDUCTIVITY IN UNITS OF MILLIWATTS/(CM)(K)

 VISC,MILLIPOISE  0.42094  0.37802  0.37802  0.33246  0.31157  0.29592  0.28326  0.27263

  WITH EQUILIBRIUM REACTIONS

 Cp, KJ/(KG)(K)    1.7838   1.7258   1.7258   1.6665   1.6401   1.6207   1.6052   1.5924
 CONDUCTIVITY      0.8830   0.7533   0.7533   0.6270   0.5729   0.5340   0.5035   0.4787
 PRANDTL NUMBER    0.8504   0.8660   0.8660   0.8837   0.8920   0.8981   0.9030   0.9070

  WITH FROZEN REACTIONS

 Cp, KJ/(KG)(K)    1.7838   1.7258   1.7258   1.6665   1.6401   1.6207   1.6052   1.5924
 CONDUCTIVITY      0.8830   0.7533   0.7533   0.6270   0.5729   0.5340   0.5035   0.4787
 PRANDTL NUMBER    0.8504   0.8660   0.8660   0.8837   0.8920   0.8981   0.9030   0.9070

 PERFORMANCE PARAMETERS

 Ae/At                      1.0000   1.0000   1.2000   1.4000   1.6000   1.8000   2.0000
 CSTAR, M/SEC                916.5    916.5    916.5    916.5    916.5    916.5    916.5
 CF                         0.7031   0.7031   0.9885   1.0887   1.1560   1.2063   1.2463
 Ivac, M/SEC                1147.6   1147.6   1214.0   1257.5   1290.1   1316.1   1337.4
 Isp, M/SEC                  644.4    644.4    906.0    997.9   1059.5   1105.6   1142.3


 MOLE FRACTIONS

 H2O              0.71627  0.71627  0.71627  0.71627  0.71627  0.71627  0.71627  0.71627
 *O2              0.28373  0.28373  0.28373  0.28373  0.28373  0.28373  0.28373  0.28373

  * THERMODYNAMIC PROPERTIES FITTED TO 20000.K

[...]
 CF                         0.7026   0.7026   0.9880   1.0882   1.1555   1.2059   1.2459
 Ivac, M/SEC                1158.7   1158.7   1225.8   1269.7   1302.7   1329.0   1350.6
 Isp, M/SEC                  650.2    650.2    914.4   1007.2   1069.4   1116.1   1153.1


 MOLE FRACTIONS

 H2O              0.71298  0.71298  0.71298  0.71298  0.71298  0.71298  0.71298  0.71298
 *O2              0.28702  0.28702  0.28702  0.28702  0.28702  0.28702  0.28702  0.28702

  * THERMODYNAMIC PROPERTIES FITTED TO 20000.K

    PRODUCTS WHICH WERE CONSIDERED BUT WHOSE MOLE FRACTIONS
    WERE LESS THAN 5.000000E-06 FOR ALL ASSIGNED CONDITIONS

 *H              HO2             *H2             H2O2            *O             
 *OH             O3              H2O(cr)         H2O(L)         

 NOTE. WEIGHT FRACTION OF FUEL IN TOTAL FUELS AND OF OXIDANT IN TOTAL OXIDANTS





           THEORETICAL ROCKET PERFORMANCE ASSUMING FROZEN COMPOSITION

 Pin =    30.0 PSIA
 CASE =                

             REACTANT                    WT FRACTION      ENERGY      TEMP
                                          (SEE NOTE)     KJ/KG-MOL      K  
 FUEL        H2O(L)                       1.0000000   -285841.390    298.000
 OXIDANT     H2O2(L)                      1.0000000   -187793.400    298.000

 O/F=    7.80000  %FUEL= 11.363636  R,EQ.RATIO= 0.553982  PHI,EQ.RATIO= 0.000000

                 CHAMBER   THROAT     EXIT     EXIT     EXIT     EXIT     EXIT     EXIT
 Pinf/P            1.0000   1.8204   1.8204   3.5665   4.9351   6.3473   7.8257   9.3740
 P, BAR            2.0684   1.1363   1.1363  0.57996  0.41912  0.32587  0.26431  0.22065
 T, K              996.02   875.89   875.89   754.38   700.59   661.02   629.48   603.26
 RHO, KG/CU M    5.5021-1 3.4370-1 3.4370-1 2.0368-1 1.5850-1 1.3061-1 1.1125-1 9.6908-2
 H, KJ/KG        -6696.59 -6908.00 -6908.00 -7114.62 -7203.77 -7268.42 -7319.41 -7361.40
 U, KJ/KG        -7072.53 -7238.60 -7238.60 -7399.36 -7468.20 -7517.92 -7557.00 -7589.10
 G, KJ/KG        -17305.5 -16237.3 -16237.3 -15149.8 -14666.0 -14309.2 -14024.2 -13786.9
 S, KJ/(KG)(K)    10.6513  10.6513  10.6513  10.6513  10.6513  10.6513  10.6513  10.6513

 M, (1/n)          22.029   22.029   22.029   22.029   22.029   22.029   22.029   22.029
 Cp, KJ/(KG)(K)    1.7890   1.7305   1.7305   1.6706   1.6438   1.6241   1.6084   1.5954
 GAMMAs            1.2674   1.2790   1.2790   1.2919   1.2980   1.3028   1.3066   1.3099
 SON VEL,M/SEC      690.3    650.2    650.2    606.5    585.9    570.1    557.2    546.1
 MACH NUMBER        0.000    1.000    1.000    1.508    1.719    1.876    2.003    2.111

 TRANSPORT PROPERTIES (GASES ONLY)
   CONDUCTIVITY IN UNITS OF MILLIWATTS/(CM)(K)

 VISC,MILLIPOISE  0.42862  0.38541  0.38541  0.33949  0.31839  0.30257  0.28977  0.27900

  WITH FROZEN REACTIONS

 Cp, KJ/(KG)(K)    1.7890   1.7305   1.7305   1.6706   1.6438   1.6241   1.6084   1.5954
 CONDUCTIVITY      0.9049   0.7729   0.7729   0.6441   0.5888   0.5490   0.5178   0.4923
 PRANDTL NUMBER    0.8474   0.8629   0.8629   0.8805   0.8889   0.8951   0.9001   0.9042

 PERFORMANCE PARAMETERS

 Ae/At                      1.0000   1.0000   1.2000   1.4000   1.6000   1.8000   2.0000
 CSTAR, M/SEC                925.5    925.5    925.5    925.5    925.5    925.5    925.5
 CF                         0.7026   0.7026   0.9880   1.0882   1.1555   1.2059   1.2459
 Ivac, M/SEC                1158.7   1158.7   1225.8   1269.7   1302.7   1329.0   1350.6
 Isp, M/SEC                  650.2    650.2    914.4   1007.2   1069.4   1116.1   1153.1

 MOLE FRACTIONS

 H2O             0.71298   *O2             0.28702

  * THERMODYNAMIC PROPERTIES FITTED TO 20000.K

    PRODUCTS WHICH WERE CONSIDERED BUT WHOSE MOLE FRACTIONS
    WERE LESS THAN 5.000000E-06 FOR ALL ASSIGNED CONDITIONS

 *H              HO2             *H2             H2O2            *O             
 *OH             O3              H2O(cr)         H2O(L)         

 NOTE. WEIGHT FRACTION OF FUEL IN TOTAL FUELS AND OF OXIDANT IN TOTAL OXIDANTS






 POINT ITN      T            H           O 
   1    1     996.019     -19.991     -13.394
 Pinf/Pt = 1.812607
   2    3     876.706     -22.019     -13.524
 Pinf/Pt = 1.820335
   2    2     875.893     -22.035     -13.525
 Pinf/Pt = 1.820387
   2    1     875.887     -22.035     -13.525
   3    1     875.887     -22.035     -13.525
   4    3     762.696     -24.549     -13.670
   4    2     754.235     -24.767     -13.682
   4    2     754.386     -24.763     -13.681
   5    3     709.359     -26.011     -13.748
   5    2     700.500     -26.275     -13.762
   5    2     700.591     -26.272     -13.762
   6    3     667.995     -27.305     -13.815
   6    2     660.984     -27.540     -13.827
   6    1     661.024     -27.539     -13.827
   7    3     633.918     -28.498     -13.875
   7    2     629.465     -28.663     -13.883
   7    1     629.478     -28.663     -13.883
   8    3     601.635     -29.752     -13.936
   8    2     603.263     -29.686     -13.932





              THEORETICAL ROCKET PERFORMANCE ASSUMING EQUILIBRIUM

           COMPOSITION DURING EXPANSION FROM INFINITE AREA COMBUSTOR

 Pin =    40.0 PSIA
 CASE =                

             REACTANT                    WT FRACTION      ENERGY      TEMP
                                          (SEE NOTE)     KJ/KG-MOL      K  
 FUEL        H2O(L)                       1.0000000   -285841.390    298.000
 OXIDANT     H2O2(L)                      1.0000000   -187793.400    298.000

 O/F=    7.80000  %FUEL= 11.363636  R,EQ.RATIO= 0.553982  PHI,EQ.RATIO= 0.000000

                 CHAMBER   THROAT     EXIT     EXIT     EXIT     EXIT     EXIT     EXIT
 Pinf/P            1.0000   1.8204   1.8204   3.5665   4.9351   6.3473   7.8257   9.3740
 P, BAR            2.7579   1.5150   1.5150  0.77327  0.55883  0.43450  0.35241  0.29421
 T, K              996.02   875.89   875.89   754.39   700.59   661.02   629.48   603.26
 RHO, KG/CU M    7.3361-1 4.5827-1 4.5827-1 2.7158-1 2.1133-1 1.7415-1 1.4833-1 1.2921-1
 H, KJ/KG        -6696.59 -6908.00 -6908.00 -7114.62 -7203.77 -7268.42 -7319.41 -7361.40
 U, KJ/KG        -7072.53 -7238.60 -7238.60 -7399.36 -7468.20 -7517.92 -7557.00 -7589.10
 G, KJ/KG        -17197.3 -16142.2 -16142.2 -15067.9 -14589.9 -14237.4 -13955.8 -13721.4
 S, KJ/(KG)(K)    10.5427  10.5427  10.5427  10.5427  10.5427  10.5427  10.5427  10.5427

 M, (1/n)          22.029   22.029   22.029   22.029   22.029   22.029   22.029   22.029
 (dLV/dLP)t      -1.00000 -1.00000 -1.00000 -1.00000 -1.00000 -1.00000 -1.00000 -1.00000
 (dLV/dLT)p        1.0000   1.0000   1.0000   1.0000   1.0000   1.0000   1.0000   1.0000
 Cp, KJ/(KG)(K)    1.7890   1.7305   1.7305   1.6706   1.6438   1.6241   1.6084   1.5954
 GAMMAs            1.2674   1.2790   1.2790   1.2919   1.2980   1.3028   1.3066   1.3099
 SON VEL,M/SEC      690.3    650.2    650.2    606.5    585.9    570.1    557.2    546.1
 MACH NUMBER        0.000    1.000    1.000    1.508    1.719    1.876    2.003    2.111

 TRANSPORT PROPERTIES (GASES ONLY)
   CONDUCTIVITY IN UNITS OF MILLIWATTS/(CM)(K)

 VISC,MILLIPOISE  0.42862  0.38541  0.38541  0.33949  0.31839  0.30257  0.28977  0.27900

  WITH EQUILIBRIUM REACTIONS

 Cp, KJ/(KG)(K)    1.7890   1.7305   1.7305   1.6706   1.6438   1.6241   1.6084   1.5954
 CONDUCTIVITY      0.9049   0.7730   0.7730   0.6441   0.5888   0.5490   0.5178   0.4923
 PRANDTL NUMBER    0.8474   0.8629   0.8629   0.8805   0.8889   0.8951   0.9001   0.9042

  WITH FROZEN REACTIONS

 Cp, KJ/(KG)(K)    1.7890   1.7305   1.7305   1.6706   1.6438   1.6241   1.6084   1.5954
 CONDUCTIVITY      0.9049   0.7730   0.7730   0.6441   0.5888   0.5490   0.5178   0.4923
 PRANDTL NUMBER    0.8474   0.8629   0.8629   0.8805   0.8889   0.8951   0.9001   0.9042

 PERFORMANCE PARAMETERS

 Ae/At                      1.0000   1.0000   1.2000   1.4000   1.6000   1.8000   2.0000
 CSTAR, M/SEC                925.5    925.5    925.5    925.5    925.5    925.5    925.5
 CF                         0.7026   0.7026   0.9880   1.0882   1.1555   1.2059   1.2459
 Ivac, M/SEC                1158.7   1158.7   1225.8   1269.7   1302.7   1329.0   1350.6
 Isp, M/SEC                  650.2    650.2    914.4   1007.2   1069.4   1116.1   1153.1


 MOLE FRACTIONS

 H2O              0.71298  0.71298  0.71298  0.71298  0.71298  0.71298  0.71298  0.71298
 *O2              0.28702  0.28702  0.28702  0.28702  0.28702  0.28702  0.28702  0.28702

  * THERMODYNAMIC PROPERTIES FITTED TO 20000.K

    PRODUCTS WHICH WERE CONSIDERED BUT WHOSE MOLE FRACTIONS
    WERE LESS THAN 5.000000E-06 FOR ALL ASSIGNED CONDITIONS

 *H              HO2             *H2             H2O2            *O             
 *OH             O3              H2O(cr)         H2O(L)         

 NOTE. WEIGHT FRACTION OF FUEL IN TOTAL FUELS AND OF OXIDANT IN TOTAL OXIDANTS





           THEORETICAL ROCKET PERFORMANCE ASSUMING FROZEN COMPOSITION

 Pin =    40.0 PSIA
 CASE =                

             REACTANT                    WT FRACTION      ENERGY      TEMP
                                          (SEE NOTE)     KJ/KG-MOL      K  
 FUEL        H2O(L)                       1.0000000   -285841.390    298.000
 OXIDANT     H2O2(L)                      1.0000000   -187793.400    298.000

 O/F=    7.80000  %FUEL= 11.363636  R,EQ.RATIO= 0.553982  PHI,EQ.RATIO= 0.000000

                 CHAMBER   THROAT     EXIT     EXIT     EXIT     EXIT     EXIT     EXIT
 Pinf/P            1.0000   1.8204   1.8204   3.5665   4.9351   6.3473   7.8257   9.3740
 P, BAR            2.7579   1.5150   1.5150  0.77327  0.55883  0.43450  0.35241  0.29421
 T, K              996.02   875.89   875.89   754.38   700.59   661.02   629.48   603.26
 RHO, KG/CU M    7.3361-1 4.5827-1 4.5827-1 2.7158-1 2.1133-1 1.7415-1 1.4833-1 1.2921-1
 H, KJ/KG        -6696.59 -6908.00 -6908.00 -7114.62 -7203.77 -7268.42 -7319.41 -7361.40
 U, KJ/KG        -7072.53 -7238.60 -7238.60 -7399.36 -7468.20 -7517.92 -7557.00 -7589.10
 G, KJ/KG        -17197.3 -16142.2 -16142.2 -15067.9 -14589.9 -14237.4 -13955.8 -13721.4
 S, KJ/(KG)(K)    10.5427  10.5427  10.5427  10.5427  10.5427  10.5427  10.5427  10.5427

 M, (1/n)          22.029   22.029   22.029   22.029   22.029   22.029   22.029   22.029
 Cp, KJ/(KG)(K)    1.7890   1.7305   1.7305   1.6706   1.6438   1.6241   1.6084   1.5954
 GAMMAs            1.2674   1.2790   1.2790   1.2919   1.2980   1.3028   1.3066   1.3099
 SON VEL,M/SEC      690.3    650.2    650.2    606.5    585.9    570.1    557.2    546.1
 MACH NUMBER        0.000    1.000    1.000    1.508    1.719    1.876    2.003    2.111

 TRANSPORT PROPERTIES (GASES ONLY)
   CONDUCTIVITY IN UNITS OF MILLIWATTS/(CM)(K)

 VISC,MILLIPOISE  0.42862  0.38541  0.38541  0.33949  0.31839  0.30257  0.28977  0.27900

  WITH FROZEN REACTIONS

 Cp, KJ/(KG)(K)    1.7890   1.7305   1.7305   1.6706   1.6438   1.6241   1.6084   1.5954
 CONDUCTIVITY      0.9049   0.7729   0.7729   0.6441   0.5888   0.5490   0.5178   0.4923
 PRANDTL NUMBER    0.8474   0.8629   0.8629   0.8805   0.8889   0.8951   0.9001   0.9042

 PERFORMANCE PARAMETERS

 Ae/At                      1.0000   1.0000   1.2000   1.4000   1.6000   1.8000   2.0000
 CSTAR, M/SEC                925.5    925.5    925.5    925.5    925.5    925.5    925.5
 CF                         0.7026   0.7026   0.9880   1.0882   1.1555   1.2059   1.2459
 Ivac, M/SEC                1158.7   1158.7   1225.8   1269.7   1302.7   1329.0   1350.6
 Isp, M/SEC                  650.2    650.2    914.4   1007.2   1069.4   1116.1   1153.1

 MOLE FRACTIONS

 H2O             0.71298   *O2             0.28702

  * THERMODYNAMIC PROPERTIES FITTED TO 20000.K

    PRODUCTS WHICH WERE CONSIDERED BUT WHOSE MOLE FRACTIONS
    WERE LESS THAN 5.000000E-06 FOR ALL ASSIGNED CONDITIONS

 *H              HO2             *H2             H2O2            *O             
 *OH             O3              H2O(cr)         H2O(L)         

 NOTE. WEIGHT FRACTION OF FUEL IN TOTAL FUELS AND OF OXIDANT IN TOTAL OXIDANTS






 POINT ITN      T            H           O 
   1    1     996.019     -19.935     -13.283
 Pinf/Pt = 1.812607
   2    3     876.706     -21.963     -13.412
 Pinf/Pt = 1.820335
   2    2     875.893     -21.979     -13.413
 Pinf/Pt = 1.820387
   2    1     875.887     -21.979     -13.413
   3    1     875.887     -21.979     -13.413
   4    3     762.696     -24.493     -13.558
   4    2     754.235     -24.711     -13.570
   4    2     754.386     -24.707     -13.570
   5    3     709.359     -25.955     -13.637
   5    2     700.500     -26.219     -13.650
   5    2     700.591     -26.216     -13.650
   6    3     667.995     -27.249     -13.703
   6    2     660.984     -27.484     -13.715
   6    1     661.024     -27.483     -13.715
   7    3     633.918     -28.442     -13.763
   7    2     629.465     -28.607     -13.771
   7    1     629.478     -28.607     -13.771
   8    3     601.635     -29.697     -13.824
   8    2     603.263     -29.630     -13.821





              THEORETICAL ROCKET PERFORMANCE ASSUMING EQUILIBRIUM

           COMPOSITION DURING EXPANSION FROM INFINITE AREA COMBUSTOR

 Pin =    50.0 PSIA
 CASE =                

             REACTANT                    WT FRACTION      ENERGY      TEMP
                                          (SEE NOTE)     KJ/KG-MOL      K  
 FUEL        H2O(L)                       1.0000000   -285841.390    298.000
 OXIDANT     H2O2(L)                      1.0000000   -187793.400    298.000

 O/F=    7.80000  %FUEL= 11.363636  R,EQ.RATIO= 0.553982  PHI,EQ.RATIO= 0.000000

                 CHAMBER   THROAT     EXIT     EXIT     EXIT     EXIT     EXIT     EXIT
 Pinf/P            1.0000   1.8204   1.8204   3.5665   4.9351   6.3473   7.8257   9.3740
 P, BAR            3.4474   1.8938   1.8938  0.96659  0.69854  0.54312  0.44052  0.36776
 T, K              996.02   875.89   875.89   754.39   700.59   661.02   629.48   603.26
 RHO, KG/CU M    9.1701-1 5.7283-1 5.7283-1 3.3947-1 2.6417-1 2.1769-1 1.8541-1 1.6151-1
 H, KJ/KG        -6696.59 -6908.00 -6908.00 -7114.62 -7203.77 -7268.42 -7319.41 -7361.40
 U, KJ/KG        -7072.53 -7238.60 -7238.60 -7399.36 -7468.20 -7517.92 -7557.00 -7589.10
 G, KJ/KG        -17113.5 -16068.5 -16068.5 -15004.4 -14530.9 -14181.7 -13902.8 -13670.6
 S, KJ/(KG)(K)    10.4585  10.4585  10.4585  10.4585  10.4585  10.4585  10.4585  10.4585

 M, (1/n)          22.029   22.029   22.029   22.029   22.029   22.029   22.029   22.029
 (dLV/dLP)t      -1.00000 -1.00000 -1.00000 -1.00000 -1.00000 -1.00000 -1.00000 -1.00000
 (dLV/dLT)p        1.0000   1.0000   1.0000   1.0000   1.0000   1.0000   1.0000   1.0000
 Cp, KJ/(KG)(K)    1.7890   1.7305   1.7305   1.6706   1.6438   1.6241   1.6084   1.5954
 GAMMAs            1.2674   1.2790   1.2790   1.2919   1.2980   1.3028   1.3066   1.3099
 SON VEL,M/SEC      690.3    650.2    650.2    606.5    585.9    570.1    557.2    546.1
 MACH NUMBER        0.000    1.000    1.000    1.508    1.719    1.876    2.003    2.111

 TRANSPORT PROPERTIES (GASES ONLY)
   CONDUCTIVITY IN UNITS OF MILLIWATTS/(CM)(K)

 VISC,MILLIPOISE  0.42862  0.38541  0.38541  0.33949  0.31839  0.30257  0.28977  0.27900

  WITH EQUILIBRIUM REACTIONS

 Cp, KJ/(KG)(K)    1.7890   1.7305   1.7305   1.6706   1.6438   1.6241   1.6084   1.5954
 CONDUCTIVITY      0.9049   0.7730   0.7730   0.6441   0.5888   0.5490   0.5178   0.4923
 PRANDTL NUMBER    0.8474   0.8629   0.8629   0.8805   0.8889   0.8951   0.9001   0.9042

  WITH FROZEN REACTIONS

 Cp, KJ/(KG)(K)    1.7890   1.7305   1.7305   1.6706   1.6438   1.6241   1.6084   1.5954
 CONDUCTIVITY      0.9049   0.7730   0.7730   0.6441   0.5888   0.5490   0.5178   0.4923
 PRANDTL NUMBER    0.8474   0.8629   0.8629   0.8805   0.8889   0.8951   0.9001   0.9042

 PERFORMANCE PARAMETERS

 Ae/At                      1.0000   1.0000   1.2000   1.4000   1.6000   1.8000   2.0000
 CSTAR, M/SEC                925.5    925.5    925.5    925.5    925.5    925.5    925.5
 CF                         0.7026   0.7026   0.9880   1.0882   1.1555   1.2059   1.2459
 Ivac, M/SEC                1158.7   1158.7   1225.8   1269.7   1302.7   1329.0   1350.6
 Isp, M/SEC                  650.2    650.2    914.4   1007.2   1069.4   1116.1   1153.1


 MOLE FRACTIONS

 H2O              0.71298  0.71298  0.71298  0.71298  0.71298  0.71298  0.71298  0.71298
 *O2              0.28702  0.28702  0.28702  0.28702  0.28702  0.28702  0.28702  0.28702

  * THERMODYNAMIC PROPERTIES FITTED TO 20000.K

    PRODUCTS WHICH WERE CONSIDERED BUT WHOSE MOLE FRACTIONS
    WERE LESS THAN 5.000000E-06 FOR ALL ASSIGNED CONDITIONS

 *H              HO2             *H2             H2O2            *O             
 *OH             O3              H2O(cr)         H2O(L)         

 NOTE. WEIGHT FRACTION OF FUEL IN TOTAL FUELS AND OF OXIDANT IN TOTAL OXIDANTS





           THEORETICAL ROCKET PERFORMANCE ASSUMING FROZEN COMPOSITION

 Pin =    50.0 PSIA
 CASE =                

             REACTANT                    WT FRACTION      ENERGY      TEMP
                                          (SEE NOTE)     KJ/KG-MOL      K  
 FUEL        H2O(L)                       1.0000000   -285841.390    298.000
 OXIDANT     H2O2(L)                      1.0000000   -187793.400    298.000

 O/F=    7.80000  %FUEL= 11.363636  R,EQ.RATIO= 0.553982  PHI,EQ.RATIO= 0.000000

                 CHAMBER   THROAT     EXIT     EXIT     EXIT     EXIT     EXIT     EXIT
 Pinf/P            1.0000   1.8204   1.8204   3.5665   4.9351   6.3473   7.8257   9.3740
 P, BAR            3.4474   1.8938   1.8938  0.96659  0.69854  0.54312  0.44052  0.36776
 T, K              996.02   875.89   875.89   754.38   700.59   661.02   629.48   603.26
 RHO, KG/CU M    9.1701-1 5.7283-1 5.7283-1 3.3947-1 2.6417-1 2.1769-1 1.8541-1 1.6151-1
 H, KJ/KG        -6696.59 -6908.00 -6908.00 -7114.62 -7203.77 -7268.42 -7319.41 -7361.40
 U, KJ/KG        -7072.53 -7238.60 -7238.60 -7399.36 -7468.20 -7517.92 -7557.00 -7589.10
 G, KJ/KG        -17113.5 -16068.5 -16068.5 -15004.4 -14530.9 -14181.7 -13902.8 -13670.6
 S, KJ/(KG)(K)    10.4585  10.4585  10.4585  10.4585  10.4585  10.4585  10.4585  10.4585

 M, (1/n)          22.029   22.029   22.029   22.029   22.029   22.029   22.029   22.029
 Cp, KJ/(KG)(K)    1.7890   1.7305   1.7305   1.6706   1.6438   1.6241   1.6084   1.5954
 GAMMAs            1.2674   1.2790   1.2790   1.2919   1.2980   1.3028   1.3066   1.3099
 SON VEL,M/SEC      690.3    650.2    650.2    606.5    585.9    570.1    557.2    546.1
 MACH NUMBER        0.000    1.000    1.000    1.508    1.719    1.876    2.003    2.111

 TRANSPORT PROPERTIES (GASES ONLY)
   CONDUCTIVITY IN UNITS OF MILLIWATTS/(CM)(K)

 VISC,MILLIPOISE  0.42862  0.38541  0.38541  0.33949  0.31839  0.30257  0.28977  0.27900

  WITH FROZEN REACTIONS

 Cp, KJ/(KG)(K)    1.7890   1.7305   1.7305   1.6706   1.6438   1.6241   1.6084   1.5954
 CONDUCTIVITY      0.9049   0.7729   0.7729   0.6441   0.5888   0.5490   0.5178   0.4923
 PRANDTL NUMBER    0.8474   0.8629   0.8629   0.8805   0.8889   0.8951   0.9001   0.9042

 PERFORMANCE PARAMETERS

 Ae/At                     1.00000   1.0000   1.2000   1.4000   1.6000   1.8000   2.0000
 CSTAR, M/SEC                925.5    925.5    925.5    925.5    925.5    925.5    925.5
 CF                         0.7026   0.7026   0.9880   1.0882   1.1555   1.2059   1.2459
 Ivac, M/SEC                1158.7   1158.7   1225.8   1269.7   1302.7   1329.0   1350.6
 Isp, M/SEC                  650.2    650.2    914.4   1007.2   1069.4   1116.1   1153.1

 MOLE FRACTIONS

 H2O             0.71298   *O2             0.28702

  * THERMODYNAMIC PROPERTIES FITTED TO 20000.K

    PRODUCTS WHICH WERE CONSIDERED BUT WHOSE MOLE FRACTIONS
    WERE LESS THAN 5.000000E-06 FOR ALL ASSIGNED CONDITIONS

 *H              HO2             *H2             H2O2            *O             
 *OH             O3              H2O(cr)         H2O(L)         

 NOTE. WEIGHT FRACTION OF FUEL IN TOTAL FUELS AND OF OXIDANT IN TOTAL OXIDANTS



