
 *******************************************************************************

         NASA-GLENN CHEMICAL EQUILIBRIUM PROGRAM CEA2, MAY 21, 2004
                   BY  BONNIE MCBRIDE AND SANFORD GORDON
      REFS: NASA RP-1311, PART I, 1994 AND NASA RP-1311, PART II, 1996

 *******************************************************************************



 problem rocket eq fr
     p(psi) = 20, 30, 40, 50
     o/f = 8, 8.2, 8.4, 8.6, 8.8, 9
     sup = 1, 1.2, 1.4, 1.6, 1.8, 2
 reac
     fuel = H2O(L) t(K) = 298.000
     ox = H2O2(L) t(K) = 298.000
 outp trans
 end

 OPTIONS: TP=F  HP=F  SP=F  TV=F  UV=F  SV=F  DETN=F  SHOCK=F  REFL=F  INCD=F
 RKT=T  FROZ=T  EQL=T  IONS=F  SIUNIT=T  DEBUGF=F  SHKDBG=F  DETDBG=F  TRNSPT=T

 TRACE= 0.00E+00  S/R= 0.000000E+00  H/R= 0.000000E+00  U/R= 0.000000E+00

 Pc,BAR =     1.378946     2.068419     2.757892     3.447365

 Pc/P =

 SUBSONIC AREA RATIOS =

 SUPERSONIC AREA RATIOS =     1.0000     1.2000     1.4000     1.6000     1.8000
     2.0000

 NFZ=  1  Mdot/Ac= 0.000000E+00  Ac/At= 0.000000E+00

 WARNING!!  AMOUNT MISSING FOR REACTANT  1.
 PROGRAM SETS WEIGHT PERCENT = 100. (REACT)

 WARNING!!  AMOUNT MISSING FOR REACTANT  2.
 PROGRAM SETS WEIGHT PERCENT = 100. (REACT)

    REACTANT          WT.FRAC   (ENERGY/R),K   TEMP,K  DENSITY
        EXPLODED FORMULA
 F: H2O(L)           1.000000  -0.343786E+05   298.00  0.0000
          H  2.00000  O  1.00000
 O: H2O2(L)          1.000000  -0.225862E+05   298.00  0.0000
          H  2.00000  O  2.00000

  SPECIES BEING CONSIDERED IN THIS SYSTEM
 (CONDENSED PHASE MAY HAVE NAME LISTED SEVERAL TIMES)
  LAST thermo.inp UPDATE:    9/09/04

  g 6/97  *H               g 4/02  HO2              tpis78  *H2            
  g 8/89  H2O              g 6/99  H2O2             g 5/97  *O             
  g 4/02  *OH              tpis89  *O2              g 8/01  O3             
  g11/99  H2O(cr)          g 8/01  H2O(L)           g 8/01  H2O(L)         

 SPECIES WITH TRANSPORT PROPERTIES

        PURE SPECIES

  H                 H2                H2O               O               
  OH                O2              

     BINARY INTERACTIONS

     H               H2              
     H               O               
     H2              H2O             
     H2              O2              
     H2O             O2              
     O               O2              


 O/F =   8.000000

                       EFFECTIVE FUEL     EFFECTIVE OXIDANT        MIXTURE
 ENTHALPY                  h(2)/R              h(1)/R               h0/R
 (KG-MOL)(K)/KG       -0.19083035E+04     -0.66401406E+03     -0.80226844E+03

 KG-FORM.WT./KG             bi(2)               bi(1)               b0i
  *H                   0.11101687E+00      0.58798142E-01      0.64600223E-01
  *O                   0.55508435E-01      0.58798142E-01      0.58432619E-01

 POINT ITN      T            H           O 
   1   10    1002.193     -20.082     -13.748
 Pinf/Pt = 1.812297
   2    3     882.340     -22.093     -13.877
 Pinf/Pt = 1.820021
   2    2     881.523     -22.109     -13.878
 Pinf/Pt = 1.820073
   2    1     881.517     -22.109     -13.878
   3    1     881.517     -22.109     -13.878
   4    3     767.748     -24.603     -14.022
   4    2     759.277     -24.818     -14.034
   4    2     759.427     -24.814     -14.034
   5    3     714.127     -26.053     -14.100
   5    2     705.267     -26.314     -14.114
   5    2     705.358     -26.311     -14.114
   6    3     672.537     -27.337     -14.167
   6    2     665.543     -27.569     -14.178
   6    1     665.583     -27.567     -14.178
   7    3     638.270     -28.520     -14.226
   7    2     633.854     -28.682     -14.234
   7    1     633.866     -28.682     -14.234
   8    3     605.852     -29.763     -14.287
   8    2     607.507     -29.696     -14.283





              THEORETICAL ROCKET PERFORMANCE ASSUMING EQUILIBRIUM

           COMPOSITION DURING EXPANSION FROM INFINITE AREA COMBUSTOR

 Pin =    20.0 PSIA
 CASE =                

             REACTANT                    WT FRACTION      ENERGY      TEMP
                                          (SEE NOTE)     KJ/KG-MOL      K  
 FUEL        H2O(L)                       1.0000000   -285841.390    298.000
 OXIDANT     H2O2(L)                      1.0000000   -187793.400    298.000

 O/F=    8.00000  %FUEL= 11.111111  R,EQ.RATIO= 0.552775  PHI,EQ.RATIO= 0.000000

                 CHAMBER   THROAT     EXIT     EXIT     EXIT     EXIT     EXIT     EXIT
 Pinf/P            1.0000   1.8201   1.8201   3.5652   4.9328   6.3439   7.8211   9.3681
 P, BAR            1.3789  0.75763  0.75763  0.38678  0.27954  0.21736  0.17631  0.14720
 T, K             1002.19   881.52   881.52   759.43   705.36   665.58   633.87   607.51
 RHO, KG/CU M    3.6478-1 2.2785-1 2.2785-1 1.3502-1 1.0507-1 8.6580-2 7.3741-2 6.4236-2
 H, KJ/KG        -6670.47 -6883.01 -6883.01 -7090.80 -7180.47 -7245.50 -7296.79 -7339.04
 U, KJ/KG        -7048.50 -7215.52 -7215.52 -7377.25 -7446.53 -7496.56 -7535.89 -7568.19
 G, KJ/KG        -17503.6 -16411.7 -16411.7 -15299.7 -14804.9 -14440.0 -14148.5 -13905.8
 S, KJ/(KG)(K)    10.8094  10.8094  10.8094  10.8094  10.8094  10.8094  10.8094  10.8094

 M, (1/n)          22.043   22.043   22.043   22.043   22.043   22.043   22.043   22.043
 (dLV/dLP)t      -1.00000 -1.00000 -1.00000 -1.00000 -1.00000 -1.00000 -1.00000 -1.00000
 (dLV/dLT)p        1.0000   1.0000   1.0000   1.0000   1.0000   1.0000   1.0000   1.0000
 Cp, KJ/(KG)(K)    1.7906   1.7319   1.7319   1.6718   1.6449   1.6251   1.6094   1.5963
 GAMMAs            1.2669   1.2784   1.2784   1.2914   1.2975   1.3023   1.3061   1.3094
 SON VEL,M/SEC      692.0    652.0    652.0    608.2    587.6    571.8    558.8    547.8
 MACH NUMBER        0.000    1.000    1.000    1.507    1.719    1.876    2.003    2.111

 TRANSPORT PROPERTIES (GASES ONLY)
   CONDUCTIVITY IN UNITS OF MILLIWATTS/(CM)(K)

 VISC,MILLIPOISE  0.43093  0.38765  0.38765  0.34162  0.32046  0.30459  0.29174  0.28094

  WITH EQUILIBRIUM REACTIONS

 Cp, KJ/(KG)(K)    1.7906   1.7319   1.7319   1.6718   1.6449   1.6251   1.6094   1.5963
 CONDUCTIVITY      0.9116   0.7789   0.7789   0.6493   0.5937   0.5536   0.5222   0.4965
 PRANDTL NUMBER    0.8465   0.8619   0.8619   0.8796   0.8879   0.8942   0.8992   0.9033

  WITH FROZEN REACTIONS

 Cp, KJ/(KG)(K)    1.7905   1.7319   1.7319   1.6718   1.6449   1.6251   1.6094   1.5963
 CONDUCTIVITY      0.9116   0.7789   0.7789   0.6493   0.5937   0.5536   0.5222   0.4965
 PRANDTL NUMBER    0.8465   0.8619   0.8619   0.8796   0.8879   0.8942   0.8992   0.9033

 PERFORMANCE PARAMETERS

 Ae/At                      1.0000   1.0000   1.2000   1.4000   1.6000   1.8000   2.0000
 CSTAR, M/SEC                928.2    928.2    928.2    928.2    928.2    928.2    928.2
 CF                         0.7024   0.7024   0.9878   1.0881   1.1553   1.2058   1.2458
 Ivac, M/SEC                1162.0   1162.0   1229.3   1273.4   1306.5   1332.8   1354.5
 Isp, M/SEC                  652.0    652.0    916.9   1009.9   1072.4   1119.2   1156.4


 MOLE FRACTIONS

 H2O              0.71198  0.71198  0.71198  0.71198  0.71198  0.71198  0.71198  0.71198
 *O2              0.28802  0.28802  0.28802  0.28802  0.28802  0.28802  0.28802  0.28802

  * THERMODYNAMIC PROPERTIES FITTED TO 20000.K

    PRODUCTS WHICH WERE CONSIDERED BUT WHOSE MOLE FRACTIONS
    WERE LESS THAN 5.000000E-06 FOR ALL ASSIGNED CONDITIONS

 *H              HO2             *H2             H2O2            *O             
 *OH             O3              H2O(cr)         H2O(L)         

 NOTE. WEIGHT FRACTION OF FUEL IN TOTAL FUELS AND OF OXIDANT IN TOTAL OXIDANTS





           THEORETICAL ROCKET PERFORMANCE ASSUMING FROZEN COMPOSITION

 Pin =    20.0 PSIA
 CASE =                

             REACTANT                    WT FRACTION      ENERGY      TEMP
                                          (SEE NOTE)     KJ/KG-MOL      K  
 FUEL        H2O(L)                       1.0000000   -285841.390    298.000
 OXIDANT     H2O2(L)                      1.0000000   -187793.400    298.000

 O/F=    8.00000  %FUEL= 11.111111  R,EQ.RATIO= 0.552775  PHI,EQ.RATIO= 0.000000

                 CHAMBER   THROAT     EXIT     EXIT     EXIT     EXIT     EXIT     EXIT
 Pinf/P            1.0000   1.8201   1.8201   3.5652   4.9328   6.3439   7.8211   9.3681
 P, BAR            1.3789  0.75763  0.75763  0.38678  0.27954  0.21736  0.17631  0.14720
 T, K             1002.19   881.52   881.52   759.43   705.36   665.58   633.86   607.51
 RHO, KG/CU M    3.6478-1 2.2785-1 2.2785-1 1.3502-1 1.0507-1 8.6580-2 7.3741-2 6.4236-2
 H, KJ/KG        -6670.47 -6883.01 -6883.01 -7090.80 -7180.47 -7245.50 -7296.79 -7339.04
 U, KJ/KG        -7048.50 -7215.52 -7215.52 -7377.25 -7446.53 -7496.56 -7535.89 -7568.19
 G, KJ/KG        -17503.6 -16411.7 -16411.7 -15299.7 -14804.9 -14440.0 -14148.5 -13905.8
 S, KJ/(KG)(K)    10.8094  10.8094  10.8094  10.8094  10.8094  10.8094  10.8094  10.8094

 M, (1/n)          22.043   22.043   22.043   22.043   22.043   22.043   22.043   22.043
 Cp, KJ/(KG)(K)    1.7905   1.7319   1.7319   1.6718   1.6449   1.6251   1.6094   1.5963
 GAMMAs            1.2669   1.2784   1.2784   1.2914   1.2975   1.3023   1.3061   1.3094
 SON VEL,M/SEC      692.0    652.0    652.0    608.2    587.6    571.8    558.8    547.8
 MACH NUMBER        0.000    1.000    1.000    1.507    1.719    1.876    2.003    2.111

 TRANSPORT PROPERTIES (GASES ONLY)
   CONDUCTIVITY IN UNITS OF MILLIWATTS/(CM)(K)

 VISC,MILLIPOISE  0.43093  0.38765  0.38765  0.34162  0.32046  0.30459  0.29174  0.28094

  WITH FROZEN REACTIONS

 Cp, KJ/(KG)(K)    1.7905   1.7319   1.7319   1.6718   1.6449   1.6251   1.6094   1.5963
 CONDUCTIVITY      0.9116   0.7789   0.7789   0.6493   0.5937   0.5536   0.5222   0.4965
 PRANDTL NUMBER    0.8465   0.8619   0.8619   0.8796   0.8879   0.8942   0.8992   0.9033

 PERFORMANCE PARAMETERS

 Ae/At                      1.0000   1.0000   1.2000   1.4000   1.6000   1.8000   2.0000
 CSTAR, M/SEC                928.2    928.2    928.2    928.2    928.2    928.2    928.2
 CF                         0.7024   0.7024   0.9878   1.0881   1.1553   1.2058   1.2458
 Ivac, M/SEC                1162.0   1162.0   1229.3   1273.4   1306.5   1332.8   1354.5
 Isp, M/SEC                  652.0    652.0    916.9   1009.9   1072.4   1119.2   1156.4

 MOLE FRACTIONS

 H2O             0.71198   *O2             0.28802

  * THERMODYNAMIC PROPERTIES FITTED TO 20000.K

    PRODUCTS WHICH WERE CONSIDERED BUT WHOSE MOLE FRACTIONS
    WERE LESS THAN 5.000000E-06 FOR ALL ASSIGNED CONDITIONS

 *H              HO2             *H2             H2O2            *O             
 *OH             O3              H2O(cr)         H2O(L)         

 NOTE. WEIGHT FRACTION OF FUEL IN TOTAL FUELS AND OF OXIDANT IN TOTAL OXIDANTS






 POINT ITN      T            H           O 
   1    1    1002.193     -19.980     -13.545
 Pinf/Pt = 1.812297
   2    3     882.340     -21.992     -13.674
 Pinf/Pt = 1.820021
   2    2     881.523     -22.008     -13.675
 Pinf/Pt = 1.820073
   2    1     881.517     -22.008     -13.675
   3    1     881.517     -22.008     -13.675
   4    3     767.748     -24.501     -13.819
   4    2     759.277     -24.717     -13.831
   4    2     759.427     -24.713     -13.831
   5    3     714.127     -25.952     -13.897
   5    2     705.267     -26.213     -13.911
   5    2     705.358     -26.210     -13.911
   6    3     672.537     -27.236     -13.964
   6    2     665.543     -27.467     -13.976
   6    1     665.583     -27.466     -13.976
   7    3     638.270     -28.419     -14.023
   7    2     633.854     -28.581     -14.031
   7    1     633.866     -28.580     -14.031
   8    3     605.852     -29.662     -14.084
   8    2     607.507     -29.595     -14.081





              THEORETICAL ROCKET PERFORMANCE ASSUMING EQUILIBRIUM

           COMPOSITION DURING EXPANSION FROM INFINITE AREA COMBUSTOR

 Pin =    30.0 PSIA
 CASE =                

             REACTANT                    WT FRACTION      ENERGY      TEMP
                                          (SEE NOTE)     KJ/KG-MOL      K  
 FUEL        H2O(L)                       1.0000000   -285841.390    298.000
 OXIDANT     H2O2(L)                      1.0000000   -187793.400    298.000

 O/F=    8.00000  %FUEL= 11.111111  R,EQ.RATIO= 0.552775  PHI,EQ.RATIO= 0.000000

                 CHAMBER   THROAT     EXIT     EXIT     EXIT     EXIT     EXIT     EXIT
 Pinf/P            1.0000   1.8201   1.8201   3.5652   4.9328   6.3439   7.8211   9.3681
 P, BAR            2.0684   1.1364   1.1364  0.58017  0.41932  0.32605  0.26447  0.22079
 T, K             1002.19   881.52   881.52   759.43   705.36   665.58   633.87   607.51
 RHO, KG/CU M    5.4716-1 3.4178-1 3.4178-1 2.0253-1 1.5760-1 1.2987-1 1.1061-1 9.6353-2
 H, KJ/KG        -6670.47 -6883.01 -6883.01 -7090.80 -7180.47 -7245.50 -7296.79 -7339.04
 U, KJ/KG        -7048.50 -7215.52 -7215.52 -7377.25 -7446.53 -7496.56 -7535.89 -7568.19
 G, KJ/KG        -17350.3 -16276.8 -16276.8 -15183.6 -14697.1 -14338.2 -14051.5 -13812.9
 S, KJ/(KG)(K)    10.6564  10.6564  10.6564  10.6564  10.6564  10.6564  10.6564  10.6564

 M, (1/n)          22.043   22.043   22.043   22.043   22.043   22.043   22.043   22.043
 (dLV/dLP)t      -1.00000 -1.00000 -1.00000 -1.00000 -1.00000 -1.00000 -1.00000 -1.00000
 (dLV/dLT)p        1.0000   1.0000   1.0000   1.0000   1.0000   1.0000   1.0000   1.0000
 Cp, KJ/(KG)(K)    1.7906   1.7319   1.7319   1.6718   1.6449   1.6251   1.6094   1.5963
 GAMMAs            1.2669   1.2784   1.2784   1.2914   1.2975   1.3023   1.3061   1.3094
 SON VEL,M/SEC      692.0    652.0    652.0    608.2    587.6    571.8    558.8    547.8
 MACH NUMBER        0.000    1.000    1.000    1.507    1.719    1.876    2.003    2.111

 TRANSPORT PROPERTIES (GASES ONLY)
   CONDUCTIVITY IN UNITS OF MILLIWATTS/(CM)(K)

 VISC,MILLIPOISE  0.43093  0.38765  0.38765  0.34162  0.32046  0.30459  0.29174  0.28094

  WITH EQUILIBRIUM REACTIONS

 Cp, KJ/(KG)(K)    1.7906   1.7319   1.7319   1.6718   1.6449   1.6251   1.6094   1.5963
 CONDUCTIVITY      0.9116   0.7789   0.7789   0.6493   0.5937   0.5536   0.5222   0.4965
 PRANDTL NUMBER    0.8465   0.8619   0.8619   0.8796   0.8879   0.8942   0.8992   0.9033

  WITH FROZEN REACTIONS

 Cp, KJ/(KG)(K)    1.7905   1.7319   1.7319   1.6718   1.6449   1.6251   1.6094   1.5963
 CONDUCTIVITY      0.9116   0.7789   0.7789   0.6493   0.5937   0.5536   0.5222   0.4965
 PRANDTL NUMBER    0.8465   0.8619   0.8619   0.8796   0.8879   0.8942   0.8992   0.9033

 PERFORMANCE PARAMETERS

 Ae/At                      1.0000   1.0000   1.2000   1.4000   1.6000   1.8000   2.0000
 CSTAR, M/SEC                928.2    928.2    928.2    928.2    928.2    928.2    928.2
 CF                         0.7024   0.7024   0.9878   1.0881   1.1553   1.2058   1.2458
 Ivac, M/SEC                1162.0   1162.0   1229.3   1273.4   1306.5   1332.8   1354.5
 Isp, M/SEC                  652.0    652.0    916.9   1009.9   1072.4   1119.2   1156.4


 MOLE FRACTIONS

 H2O              0.71198  0.71198  0.71198  0.71198  0.71198  0.71198  0.71198  0.71198
 *O2              0.28802  0.28802  0.28802  0.28802  0.28802  0.28802  0.28802  0.28802

  * THERMODYNAMIC PROPERTIES FITTED TO 20000.K

    PRODUCTS WHICH WERE CONSIDERED BUT WHOSE MOLE FRACTIONS
    WERE LESS THAN 5.000000E-06 FOR ALL ASSIGNED CONDITIONS

 *H              HO2             *H2             H2O2            *O             
 *OH             O3              H2O(cr)         H2O(L)         

 NOTE. WEIGHT FRACTION OF FUEL IN TOTAL FUELS AND OF OXIDANT IN TOTAL OXIDANTS





           THEORETICAL ROCKET PERFORMANCE ASSUMING FROZEN COMPOSITION

 Pin =    30.0 PSIA
 CASE =                

             REACTANT                    WT FRACTION      ENERGY      TEMP
                                          (SEE NOTE)     KJ/KG-MOL      K  
 FUEL        H2O(L)                       1.0000000   -285841.390    298.000
 OXIDANT     H2O2(L)                      1.0000000   -187793.400    298.000

 O/F=    8.00000  %FUEL= 11.111111  R,EQ.RATIO= 0.552775  PHI,EQ.RATIO= 0.000000

                 CHAMBER   THROAT     EXIT     EXIT     EXIT     EXIT     EXIT     EXIT
 Pinf/P            1.0000   1.8201   1.8201   3.5652   4.9328   6.3439   7.8211   9.3681
 P, BAR            2.0684   1.1364   1.1364  0.58017  0.41932  0.32605  0.26447  0.22079
 T, K             1002.19   881.52   881.52   759.43   705.36   665.58   633.87   607.51
 RHO, KG/CU M    5.4716-1 3.4178-1 3.4178-1 2.0253-1 1.5760-1 1.2987-1 1.1061-1 9.6353-2
 H, KJ/KG        -6670.47 -6883.01 -6883.01 -7090.80 -7180.47 -7245.50 -7296.79 -7339.04
 U, KJ/KG        -7048.50 -7215.52 -7215.52 -7377.25 -7446.53 -7496.56 -7535.89 -7568.19
 G, KJ/KG        -17350.3 -16276.8 -16276.8 -15183.6 -14697.1 -14338.2 -14051.5 -13812.9
 S, KJ/(KG)(K)    10.6564  10.6564  10.6564  10.6564  10.6564  10.6564  10.6564  10.6564

 M, (1/n)          22.043   22.043   22.043   22.043   22.043   22.043   22.043   22.043
 Cp, KJ/(KG)(K)    1.7905   1.7319   1.7319   1.6718   1.6449   1.6251   1.6094   1.5963
 GAMMAs            1.2669   1.2784   1.2784   1.2914   1.2975   1.3023   1.3061   1.3094
 SON VEL,M/SEC      692.0    652.0    652.0    608.2    587.6    571.8    558.8    547.8
 MACH NUMBER        0.000    1.000    1.000    1.507    1.719    1.876    2.003    2.111

 TRANSPORT PROPERTIES (GASES ONLY)
   CONDUCTIVITY IN UNITS OF MILLIWATTS/(CM)(K)

 VISC,MILLIPOISE  0.43093  0.38765  0.38765  0.34162  0.32046  0.30459  0.29174  0.28094

  WITH FROZEN REACTIONS

 Cp, KJ/(KG)(K)    1.7905   1.7319   1.7319   1.6718   1.6449   1.6251   1.6094   1.5963
 CONDUCTIVITY      0.9116   0.7789   0.7789   0.6493   0.5937   0.5536   0.5222   0.4965
 PRANDTL NUMBER    0.8465   0.8619   0.8619   0.8796   0.8879   0.8942   0.8992   0.9033

 PERFORMANCE PARAMETERS

 Ae/At                      1.0000   1.0000   1.2000   1.4000   1.6000   1.8000   2.0000
 CSTAR, M/SEC                928.2    928.2    928.2    928.2    928.2    928.2    928.2
 CF                         0.7024   0.7024   0.9878   1.0881   1.1553   1.2058   1.2458
 Ivac, M/SEC                1162.0   1162.0   1229.3   1273.4   1306.5   1332.8   1354.5
 Isp, M/SEC                  652.0    652.0    916.9   1009.9   1072.4   1119.2   1156.4

 MOLE FRACTIONS

 H2O             0.71198   *O2             0.28802

  * THERMODYNAMIC PROPERTIES FITTED TO 20000.K

    PRODUCTS WHICH WERE CONSIDERED BUT WHOSE MOLE FRACTIONS
    WERE LESS THAN 5.000000E-06 FOR ALL ASSIGNED CONDITIONS

 *H              HO2             *H2             H2O2            *O             
 *OH             O3              H2O(cr)         H2O(L)         

 NOTE. WEIGHT FRACTION OF FUEL IN TOTAL FUELS AND OF OXIDANT IN TOTAL OXIDANTS






 POINT ITN      T            H           O 
   1    1    1002.193     -19.908     -13.401
 Pinf/Pt = 1.812298
   2    3     882.340     -21.920     -13.530
 Pinf/Pt = 1.820021
   2    2     881.523     -21.936     -13.531
 Pinf/Pt = 1.820073
   2    1     881.517     -21.936     -13.531
   3    1     881.517     -21.936     -13.531
   4    3     767.748     -24.429     -13.675
   4    2     759.277     -24.645     -13.687
   4    2     759.427     -24.641     -13.687
   5    3     714.127     -25.880     -13.754
   5    2     705.267     -26.141     -13.767
   5    2     705.358     -26.138     -13.767
   6    3     672.537     -27.164     -13.820
   6    2     665.543     -27.395     -13.832
   6    1     665.583     -27.394     -13.832
   7    3     638.270     -28.347     -13.879
   7    2     633.854     -28.509     -13.887
   7    1     633.866     -28.508     -13.887
   8    3     605.852     -29.590     -13.940
   8    2     607.507     -29.523     -13.937





              THEORETICAL ROCKET PERFORMANCE ASSUMING EQUILIBRIUM

           COMPOSITION DURING EXPANSION FROM INFINITE AREA COMBUSTOR

 Pin =    40.0 PSIA
 CASE =                

             REACTANT                    WT FRACTION      ENERGY      TEMP
                                          (SEE NOTE)     KJ/KG-MOL      K  
 FUEL        H2O(L)                       1.0000000   -285841.390    298.000
 OXIDANT     H2O2(L)                      1.0000000   -187793.400    298.000

 O/F=    8.00000  %FUEL= 11.111111  R,EQ.RATIO= 0.552775  PHI,EQ.RATIO= 0.000000

                 CHAMBER   THROAT     EXIT     EXIT     EXIT     EXIT     EXIT     EXIT
 Pinf/P            1.0000   1.8201   1.8201   3.5652   4.9328   6.3439   7.8211   9.3681
 P, BAR            2.7579   1.5153   1.5153  0.77356  0.55909  0.43473  0.35262  0.29439
 T, K             1002.19   881.52   881.52   759.43   705.36   665.58   633.87   607.51
 RHO, KG/CU M    7.2955-1 4.5571-1 4.5571-1 2.7005-1 2.1014-1 1.7316-1 1.4748-1 1.2847-1
 H, KJ/KG        -6670.47 -6883.01 -6883.01 -7090.80 -7180.47 -7245.50 -7296.79 -7339.04
 U, KJ/KG        -7048.50 -7215.52 -7215.52 -7377.25 -7446.53 -7496.56 -7535.89 -7568.19
 G, KJ/KG        -17241.5 -16181.2 -16181.2 -15101.2 -14620.5 -14266.0 -13982.8 -13747.0
 S, KJ/(KG)(K)    10.5479  10.5479  10.5479  10.5479  10.5479  10.5479  10.5479  10.5479

 M, (1/n)          22.043   22.043   22.043   22.043   22.043   22.043   22.043   22.043
 (dLV/dLP)t      -1.00000 -1.00000 -1.00000 -1.00000 -1.00000 -1.00000 -1.00000 -1.00000
 (dLV/dLT)p        1.0000   1.0000   1.0000   1.0000   1.0000   1.0000   1.0000   1.0000
 Cp, KJ/(KG)(K)    1.7906   1.7319   1.7319   1.6718   1.6449   1.6251   1.6094   1.5963
 GAMMAs            1.2669   1.2784   1.2784   1.2914   1.2975   1.3023   1.3061   1.3094
 SON VEL,M/SEC      692.0    652.0    652.0    608.2    587.6    571.8    558.8    547.8
 MACH NUMBER        0.000    1.000    1.000    1.507    1.719    1.876    2.003    2.111

 TRANSPORT PROPERTIES (GASES ONLY)
   CONDUCTIVITY IN UNITS OF MILLIWATTS/(CM)(K)

 VISC,MILLIPOISE  0.43093  0.38765  0.38765  0.34162  0.32046  0.30459  0.29174  0.28094

  WITH EQUILIBRIUM REACTIONS

 Cp, KJ/(KG)(K)    1.7906   1.7319   1.7319   1.6718   1.6449   1.6251   1.6094   1.5963
 CONDUCTIVITY      0.9116   0.7789   0.7789   0.6493   0.5937   0.5536   0.5222   0.4965
 PRANDTL NUMBER    0.8465   0.8619   0.8619   0.8796   0.8879   0.8942   0.8992   0.9033

  WITH FROZEN REACTIONS

 Cp, KJ/(KG)(K)    1.7905   1.7319   1.7319   1.6718   1.6449   1.6251   1.6094   1.5963
 CONDUCTIVITY      0.9116   0.7789   0.7789   0.6493   0.5937   0.5536   0.5222   0.4965
 PRANDTL NUMBER    0.8465   0.8619   0.8619   0.8796   0.8879   0.8942   0.8992   0.9033

 PERFORMANCE PARAMETERS

 Ae/At                      1.0000   1.0000   1.2000   1.4000   1.6000   1.8000   2.0000
 CSTAR, M/SEC                928.2    928.2    928.2    928.2    928.2    928.2    928.2
 CF                         0.7024   0.7024   0.9878   1.0881   1.1553   1.2058   1.2458
 Ivac, M/SEC                1162.0   1162.0   1229.3   1273.4   1306.5   1332.8   1354.5
 Isp, M/SEC                  652.0    652.0    916.9   1009.9   1072.4   1119.2   1156.4


 MOLE FRACTIONS

 H2O              0.71198  0.71198  0.71198  0.71198  0.71198  0.71198  0.71198  0.71198
 *O2              0.28802  0.28802  0.28802  0.28802  0.28802  0.28802  0.28802  0.28802

  * THERMODYNAMIC PROPERTIES FITTED TO 20000.K

    PRODUCTS WHICH WERE CONSIDERED BUT WHOSE MOLE FRACTIONS
    WERE LESS THAN 5.000000E-06 FOR ALL ASSIGNED CONDITIONS

 *H              HO2             *H2             H2O2            *O             
 *OH             O3              H2O(cr)         H2O(L)         

 NOTE. WEIGHT FRACTION OF FUEL IN TOTAL FUELS AND OF OXIDANT IN TOTAL OXIDANTS





           THEORETICAL ROCKET PERFORMANCE ASSUMING FROZEN COMPOSITION

 Pin =    40.0 PSIA
 CASE =                

             REACTANT                    WT FRACTION      ENERGY      TEMP
                                          (SEE NOTE)     KJ/KG-MOL      K  
 FUEL        H2O(L)                       1.0000000   -285841.390    298.000
 OXIDANT     H2O2(L)                      1.0000000   -187793.400    298.000

 O/F=    8.00000  %FUEL= 11.111111  R,EQ.RATIO= 0.552775  PHI,EQ.RATIO= 0.000000

                 CHAMBER   THROAT     EXIT     EXIT     EXIT     EXIT     EXIT     EXIT
 Pinf/P            1.0000   1.8201   1.8201   3.5652   4.9328   6.3439   7.8211   9.3681
 P, BAR            2.7579   1.5153   1.5153  0.77356  0.55909  0.43473  0.35262  0.29439
 T, K             1002.19   881.52   881.52   759.43   705.36   665.58   633.87   607.51
 RHO, KG/CU M    7.2955-1 4.5571-1 4.5571-1 2.7005-1 2.1014-1 1.7316-1 1.4748-1 1.2847-1
 H, KJ/KG        -6670.47 -6883.01 -6883.01 -7090.80 -7180.47 -7245.50 -7296.79 -7339.04
 U, KJ/KG        -7048.50 -7215.52 -7215.52 -7377.25 -7446.53 -7496.56 -7535.89 -7568.19
 G, KJ/KG        -17241.5 -16181.2 -16181.2 -15101.2 -14620.5 -14266.0 -13982.8 -13747.0
 S, KJ/(KG)(K)    10.5479  10.5479  10.5479  10.5479  10.5479  10.5479  10.5479  10.5479

 M, (1/n)          22.043   22.043   22.043   22.043   22.043   22.043   22.043   22.043
 Cp, KJ/(KG)(K)    1.7905   1.7319   1.7319   1.6718   1.6449   1.6251   1.6094   1.5963
 GAMMAs            1.2669   1.2784   1.2784   1.2914   1.2975   1.3023   1.3061   1.3094
 SON VEL,M/SEC      692.0    652.0    652.0    608.2    587.6    571.8    558.8    547.8
 MACH NUMBER        0.000    1.000    1.000    1.507    1.719    1.876    2.003    2.111

 TRANSPORT PROPERTIES (GASES ONLY)
   CONDUCTIVITY IN UNITS OF MILLIWATTS/(CM)(K)

 VISC,MILLIPOISE  0.43093  0.38765  0.38765  0.34162  0.32046  0.30459  0.29174  0.28094

  WITH FROZEN REACTIONS

 Cp, KJ/(KG)(K)    1.7905   1.7319   1.7319   1.6718   1.6449   1.6251   1.6094   1.5963
 CONDUCTIVITY      0.9116   0.7789   0.7789   0.6493   0.5937   0.5536   0.5222   0.4965
 PRANDTL NUMBER    0.8465   0.8619   0.8619   0.8796   0.8879   0.8942   0.8992   0.9033

 PERFORMANCE PARAMETERS

 Ae/At                      1.0000   1.0000   1.2000   1.4000   1.6000   1.8000   2.0000
 CSTAR, M/SEC                928.2    928.2    928.2    928.2    928.2    928.2    928.2
 CF                         0.7024   0.7024   0.9878   1.0881   1.1553   1.2058   1.2458
 Ivac, M/SEC                1162.0   1162.0   1229.3   1273.4   1306.5   1332.8   1354.5
 Isp, M/SEC                  652.0    652.0    916.9   1009.9   1072.4   1119.2   1156.4

 MOLE FRACTIONS

 H2O             0.71198   *O2             0.28802

  * THERMODYNAMIC PROPERTIES FITTED TO 20000.K

    PRODUCTS WHICH WERE CONSIDERED BUT WHOSE MOLE FRACTIONS
    WERE LESS THAN 5.000000E-06 FOR ALL ASSIGNED CONDITIONS

 *H              HO2             *H2             H2O2            *O             
 *OH             O3              H2O(cr)         H2O(L)         

 NOTE. WEIGHT FRACTION OF FUEL IN TOTAL FUELS AND OF OXIDANT IN TOTAL OXIDANTS






 POINT ITN      T            H           O 
   1    1    1002.193     -19.852     -13.289
 Pinf/Pt = 1.812298
   2    3     882.340     -21.864     -13.419
 Pinf/Pt = 1.820021
   2    2     881.523     -21.880     -13.420
 Pinf/Pt = 1.820073
   2    1     881.517     -21.880     -13.420
   3    1     881.517     -21.880     -13.420
   4    3     767.748     -24.374     -13.564
   4    2     759.277     -24.589     -13.576
   4    2     759.427     -24.585     -13.576
   5    3     714.127     -25.824     -13.642
   5    2     705.267     -26.085     -13.656
   5    2     705.358     -26.082     -13.656
   6    3     672.537     -27.108     -13.709
   6    2     665.543     -27.340     -13.720
   6    1     665.583     -27.338     -13.720
   7    3     638.270     -28.291     -13.768
   7    2     633.854     -28.453     -13.776
   7    1     633.866     -28.453     -13.776
   8    3     605.852     -29.534     -13.829
   8    2     607.507     -29.467     -13.825





              THEORETICAL ROCKET PERFORMANCE ASSUMING EQUILIBRIUM

           COMPOSITION DURING EXPANSION FROM INFINITE AREA COMBUSTOR

 Pin =    50.0 PSIA
 CASE =                

             REACTANT                    WT FRACTION      ENERGY      TEMP
                                          (SEE NOTE)     KJ/KG-MOL      K  
 FUEL        H2O(L)                       1.0000000   -285841.390    298.000
 OXIDANT     H2O2(L)                      1.0000000   -187793.400    298.000

 O/F=    8.00000  %FUEL= 11.111111  R,EQ.RATIO= 0.552775  PHI,EQ.RATIO= 0.000000

                 CHAMBER   THROAT     EXIT     EXIT     EXIT     EXIT     EXIT     EXIT
 Pinf/P            1.0000   1.8201   1.8201   3.5652   4.9328   6.3439   7.8211   9.3681
 P, BAR            3.4474   1.8941   1.8941  0.96695  0.69886  0.54341  0.44078  0.36799
 T, K             1002.19   881.52   881.52   759.43   705.36   665.58   633.87   607.51
 RHO, KG/CU M    9.1194-1 5.6964-1 5.6964-1 3.3756-1 2.6267-1 2.1645-1 1.8435-1 1.6059-1
 H, KJ/KG        -6670.47 -6883.01 -6883.01 -7090.80 -7180.47 -7245.50 -7296.79 -7339.04
 U, KJ/KG        -7048.50 -7215.52 -7215.52 -7377.25 -7446.53 -7496.56 -7535.89 -7568.19
 G, KJ/KG        -17157.2 -16107.0 -16107.0 -15037.3 -14561.2 -14210.0 -13929.4 -13695.8
 S, KJ/(KG)(K)    10.4638  10.4638  10.4638  10.4638  10.4638  10.4638  10.4638  10.4638

 M, (1/n)          22.043   22.043   22.043   22.043   22.043   22.043   22.043   22.043
 (dLV/dLP)t      -1.00000 -1.00000 -1.00000 -1.00000 -1.00000 -1.00000 -1.00000 -1.00000
 (dLV/dLT)p        1.0000   1.0000   1.0000   1.0000   1.0000   1.0000   1.0000   1.0000
 Cp, KJ/(KG)(K)    1.7906   1.7319   1.7319   1.6718   1.6449   1.6251   1.6094   1.5963
 GAMMAs            1.2669   1.2784   1.2784   1.2914   1.2975   1.3023   1.3061   1.3094
 SON VEL,M/SEC      692.0    652.0    652.0    608.2    587.6    571.8    558.8    547.8
 MACH NUMBER        0.000    1.000    1.000    1.507    1.719    1.876    2.003    2.111

 TRANSPORT PROPERTIES (GASES ONLY)
   CONDUCTIVITY IN UNITS OF MILLIWATTS/(CM)(K)

 VISC,MILLIPOISE  0.43093  0.38765  0.38765  0.34162  0.32046  0.30459  0.29174  0.28094

  WITH EQUILIBRIUM REACTIONS

 Cp, KJ/(KG)(K)    1.7906   1.7319   1.7319   1.6718   1.6449   1.6251   1.6094   1.5963
 CONDUCTIVITY      0.9116   0.7789   0.7789   0.6493   0.5937   0.5536   0.5222   0.4965
 PRANDTL NUMBER    0.8465   0.8619   0.8619   0.8796   0.8879   0.8942   0.8992   0.9033

  WITH FROZEN REACTIONS

 Cp, KJ/(KG)(K)    1.7905   1.7319   1.7319   1.6718   1.6449   1.6251   1.6094   1.5963
 CONDUCTIVITY      0.9116   0.7789   0.7789   0.6493   0.5937   0.5536   0.5222   0.4965
 PRANDTL NUMBER    0.8465   0.8619   0.8619   0.8796   0.8879   0.8942   0.8992   0.9033

 PERFORMANCE PARAMETERS

 Ae/At                      1.0000   1.0000   1.2000   1.4000   1.6000   1.8000   2.0000
 CSTAR, M/SEC                928.2    928.2    928.2    928.2    928.2    928.2    928.2
 CF                         0.7024   0.7024   0.9878   1.0881   1.1553   1.2058   1.2458
 Ivac, M/SEC                1162.0   1162.0   1229.3   1273.4   1306.5   1332.8   1354.5
 Isp, M/SEC                  652.0    652.0    916.9   1009.9   1072.4   1119.2   1156.4


 MOLE FRACTIONS

 H2O              0.71198  0.71198  0.71198  0.71198  0.71198  0.71198  0.71198  0.71198
 *O2              0.28802  0.28802  0.28802  0.28802  0.28802  0.28802  0.28802  0.28802

  * THERMODYNAMIC PROPERTIES FITTED TO 20000.K

    PRODUCTS WHICH WERE CONSIDERED BUT WHOSE MOLE FRACTIONS
    WERE LESS THAN 5.000000E-06 FOR ALL ASSIGNED CONDITIONS

 *H              HO2             *H2             H2O2            *O             
 *OH             O3              H2O(cr)         H2O(L)         

 NOTE. WEIGHT FRACTION OF FUEL IN TOTAL FUELS AND OF OXIDANT IN TOTAL OXIDANTS





           THEORETICAL ROCKET PERFORMANCE ASSUMING FROZEN COMPOSITION

 Pin =    50.0 PSIA
 CASE =                

             REACTANT                    WT FRACTION      ENERGY      TEMP
                                          (SEE NOTE)     KJ/KG-MOL      K  
 FUEL        H2O(L)                       1.0000000   -285841.390    298.000
 OXIDANT     H2O2(L)                      1.0000000   -187793.400    298.000

 O/F=    8.00000  %FUEL= 11.111111  R,EQ.RATIO= 0.552775  PHI,EQ.RATIO= 0.000000

                 CHAMBER   THROAT     EXIT     EXIT     EXIT     EXIT     EXIT     EXIT
 Pinf/P            1.0000   1.8201   1.8201   3.5652   4.9328   6.3439   7.8211   9.3681
 P, BAR            3.4474   1.8941   1.8941  0.96695  0.69886  0.54341  0.44078  0.36799
 T, K             1002.19   881.52   881.52   759.43   705.36   665.58   633.87   607.51
 RHO, KG/CU M    9.1194-1 5.6964-1 5.6964-1 3.3756-1 2.6267-1 2.1645-1 1.8435-1 1.6059-1
 H, KJ/KG        -6670.47 -6883.01 -6883.01 -7090.80 -7180.47 -7245.50 -7296.79 -7339.04
 U, KJ/KG        -7048.50 -7215.52 -7215.52 -7377.25 -7446.53 -7496.56 -7535.89 -7568.19
 G, KJ/KG        -17157.2 -16107.0 -16107.0 -15037.2 -14561.1 -14210.0 -13929.4 -13695.8
 S, KJ/(KG)(K)    10.4638  10.4638  10.4638  10.4638  10.4638  10.4638  10.4638  10.4638

 M, (1/n)          22.043   22.043   22.043   22.043   22.043   22.043   22.043   22.043
 Cp, KJ/(KG)(K)    1.7905   1.7319   1.7319   1.6718   1.6449   1.6251   1.6094   1.5963
 GAMMAs            1.2669   1.2784   1.2784   1.2914   1.2975   1.3023   1.3061   1.3094
 SON VEL,M/SEC      692.0    652.0    652.0    608.2    587.6    571.8    558.8    547.8
 MACH NUMBER        0.000    1.000    1.000    1.507    1.719    1.876    2.003    2.111

 TRANSPORT PROPERTIES (GASES ONLY)
   CONDUCTIVITY IN UNITS OF MILLIWATTS/(CM)(K)

 VISC,MILLIPOISE  0.43093  0.38765  0.38765  0.34162  0.32046  0.30459  0.29174  0.28094

  WITH FROZEN REACTIONS

 Cp, KJ/(KG)(K)    1.7905   1.7319   1.7319   1.6718   1.6449   1.6251   1.6094   1.5963
 CONDUCTIVITY      0.9116   0.7789   0.7789   0.6493   0.5937   0.5536   0.5222   0.4965
 PRANDTL NUMBER    0.8465   0.8619   0.8619   0.8796   0.8879   0.8942   0.8992   0.9033

 PERFORMANCE PARAMETERS

 Ae/At                      1.0000   1.0000   1.2000   1.4000   1.6000   1.8000   2.0000
 CSTAR, M/SEC                928.2    928.2    928.2    928.2    928.2    928.2    928.2
 CF                         0.7024   0.7024   0.9878   1.0881   1.1553   1.2058   1.2458
 Ivac, M/SEC                1162.0   1162.0   1229.3   1273.4   1306.5   1332.8   1354.5
 Isp, M/SEC                  652.0    652.0    916.9   1009.9   1072.4   1119.2   1156.4

 MOLE FRACTIONS

 H2O             0.71198   *O2             0.28802

  * THERMODYNAMIC PROPERTIES FITTED TO 20000.K

    PRODUCTS WHICH WERE CONSIDERED BUT WHOSE MOLE FRACTIONS
    WERE LESS THAN 5.000000E-06 FOR ALL ASSIGNED CONDITIONS

 *H              HO2             *H2             H2O2            *O             
 *OH             O3              H2O(cr)         H2O(L)         

 NOTE. WEIGHT FRACTION OF FUEL IN TOTAL FUELS AND OF OXIDANT IN TOTAL OXIDANTS






 O/F =   8.200000

                       EFFECTIVE FUEL     EFFECTIVE OXIDANT        MIXTURE
 ENTHALPY                  h(2)/R              h(1)/R               h0/R
 (KG-MOL)(K)/KG       -0.19083035E+04     -0.66401406E+03     -0.79926291E+03

 KG-FORM.WT./KG             bi(2)               bi(1)               b0i
  *H                   0.11101687E+00      0.58798142E-01      0.64474091E-01
  *O                   0.55508435E-01      0.58798142E-01      0.58440566E-01

 POINT ITN      T            H           O 
   1    2    1008.099     -20.003     -13.754
 Pinf/Pt = 1.812005
   2    3     887.729     -22.000     -13.883
 Pinf/Pt = 1.819722
   2    2     886.909     -22.015     -13.884
 Pinf/Pt = 1.819775
   2    1     886.904     -22.015     -13.884
   3    1     886.904     -22.015     -13.884
   4    3     772.582     -24.490     -14.028
   4    2     764.102     -24.703     -14.039
   4    2     764.252     -24.700     -14.039
   5    3     718.690     -25.930     -14.105
   5    2     709.830     -26.187     -14.119
   5    2     709.921     -26.185     -14.119
   6    3     676.884     -27.204     -14.172
   6    2     669.907     -27.432     -14.183
   6    1     669.946     -27.431     -14.183
   7    3     642.435     -28.378     -14.231
   7    2     638.055     -28.537     -14.239
   7    1     638.067     -28.536     -14.239
   8    3     609.890     -29.609     -14.291
   8    2     611.570     -29.543     -14.288





              THEORETICAL ROCKET PERFORMANCE ASSUMING EQUILIBRIUM

           COMPOSITION DURING EXPANSION FROM INFINITE AREA COMBUSTOR

 Pin =    20.0 PSIA
 CASE =                

             REACTANT                    WT FRACTION      ENERGY      TEMP
                                          (SEE NOTE)     KJ/KG-MOL      K  
 FUEL        H2O(L)                       1.0000000   -285841.390    298.000
 OXIDANT     H2O2(L)                      1.0000000   -187793.400    298.000

 O/F=    8.20000  %FUEL= 10.869565  R,EQ.RATIO= 0.551621  PHI,EQ.RATIO= 0.000000

                 CHAMBER   THROAT     EXIT     EXIT     EXIT     EXIT     EXIT     EXIT
 Pinf/P            1.0000   1.8198   1.8198   3.5640   4.9307   6.3407   7.8167   9.3624
 P, BAR            1.3789  0.75776  0.75776  0.38691  0.27967  0.21747  0.17641  0.14729
 T, K             1008.10   886.90   886.90   764.25   709.92   669.95   638.07   611.57
 RHO, KG/CU M    3.6286-1 2.2665-1 2.2665-1 1.3430-1 1.0450-1 8.6112-2 7.3341-2 6.3886-2
 H, KJ/KG        -6645.48 -6859.11 -6859.11 -7068.01 -7158.17 -7223.57 -7275.16 -7317.65
 U, KJ/KG        -7025.50 -7193.45 -7193.45 -7356.11 -7425.79 -7476.12 -7515.69 -7548.19
 G, KJ/KG        -17547.2 -16450.2 -16450.2 -15332.7 -14835.3 -14468.5 -14175.3 -13931.2
 S, KJ/(KG)(K)    10.8141  10.8141  10.8141  10.8141  10.8141  10.8141  10.8141  10.8141

 M, (1/n)          22.056   22.056   22.056   22.056   22.056   22.056   22.056   22.056
 (dLV/dLP)t      -1.00000 -1.00000 -1.00000 -1.00000 -1.00000 -1.00000 -1.00000 -1.00000
 (dLV/dLT)p        1.0000   1.0000   1.0000   1.0000   1.0000   1.0000   1.0000   1.0000
 Cp, KJ/(KG)(K)    1.7921   1.7332   1.7332   1.6729   1.6460   1.6261   1.6103   1.5971
 GAMMAs            1.2664   1.2779   1.2779   1.2909   1.2971   1.3018   1.3057   1.3089
 SON VEL,M/SEC      693.7    653.7    653.7    609.8    589.2    573.4    560.4    549.3
 MACH NUMBER        0.000    1.000    1.000    1.507    1.719    1.875    2.003    2.111

 TRANSPORT PROPERTIES (GASES ONLY)
   CONDUCTIVITY IN UNITS OF MILLIWATTS/(CM)(K)

 VISC,MILLIPOISE  0.43315  0.38978  0.38978  0.34365  0.32243  0.30651  0.29362  0.28278

  WITH EQUILIBRIUM REACTIONS

 Cp, KJ/(KG)(K)    1.7921   1.7332   1.7332   1.6729   1.6460   1.6261   1.6103   1.5971
 CONDUCTIVITY      0.9180   0.7846   0.7846   0.6543   0.5983   0.5580   0.5263   0.5005
 PRANDTL NUMBER    0.8456   0.8610   0.8610   0.8787   0.8870   0.8933   0.8983   0.9024

  WITH FROZEN REACTIONS

 Cp, KJ/(KG)(K)    1.7920   1.7332   1.7332   1.6729   1.6460   1.6261   1.6103   1.5971
 CONDUCTIVITY      0.9179   0.7846   0.7846   0.6543   0.5983   0.5580   0.5263   0.5005
 PRANDTL NUMBER    0.8456   0.8610   0.8610   0.8787   0.8870   0.8933   0.8983   0.9024

 PERFORMANCE PARAMETERS

 Ae/At                      1.0000   1.0000   1.2000   1.4000   1.6000   1.8000   2.0000
 CSTAR, M/SEC                930.8    930.8    930.8    930.8    930.8    930.8    930.8
 CF                         0.7023   0.7023   0.9876   1.0879   1.1552   1.2057   1.2457
 Ivac, M/SEC                1165.1   1165.1   1232.7   1276.9   1310.1   1336.5   1358.3
 Isp, M/SEC                  653.7    653.7    919.3   1012.6   1075.3   1122.2   1159.5


 MOLE FRACTIONS

 H2O              0.71103  0.71103  0.71103  0.71103  0.71103  0.71103  0.71103  0.71103
 *O2              0.28897  0.28897  0.28897  0.28897  0.28897  0.28897  0.28897  0.28897

  * THERMODYNAMIC PROPERTIES FITTED TO 20000.K

    PRODUCTS WHICH WERE CONSIDERED BUT WHOSE MOLE FRACTIONS
    WERE LESS THAN 5.000000E-06 FOR ALL ASSIGNED CONDITIONS

 *H              HO2             *H2             H2O2            *O             
 *OH             O3              H2O(cr)         H2O(L)         

 NOTE. WEIGHT FRACTION OF FUEL IN TOTAL FUELS AND OF OXIDANT IN TOTAL OXIDANTS





           THEORETICAL ROCKET PERFORMANCE ASSUMING FROZEN COMPOSITION

 Pin =    20.0 PSIA
 CASE =                

             REACTANT                    WT FRACTION      ENERGY      TEMP
                                          (SEE NOTE)     KJ/KG-MOL      K  
 FUEL        H2O(L)                       1.0000000   -285841.390    298.000
 OXIDANT     H2O2(L)                      1.0000000   -187793.400    298.000

 O/F=    8.20000  %FUEL= 10.869565  R,EQ.RATIO= 0.551621  PHI,EQ.RATIO= 0.000000

                 CHAMBER   THROAT     EXIT     EXIT     EXIT     EXIT     EXIT     EXIT
 Pinf/P            1.0000   1.8198   1.8198   3.5640   4.9307   6.3407   7.8167   9.3624
 P, BAR            1.3789  0.75776  0.75776  0.38691  0.27967  0.21747  0.17641  0.14729
 T, K             1008.10   886.90   886.90   764.25   709.92   669.94   638.07   611.57
 RHO, KG/CU M    3.6286-1 2.2665-1 2.2665-1 1.3430-1 1.0450-1 8.6112-2 7.3341-2 6.3886-2
 H, KJ/KG        -6645.48 -6859.11 -6859.11 -7068.01 -7158.17 -7223.57 -7275.15 -7317.65
 U, KJ/KG        -7025.50 -7193.45 -7193.45 -7356.10 -7425.79 -7476.12 -7515.69 -7548.19
 G, KJ/KG        -17547.2 -16450.2 -16450.2 -15332.7 -14835.3 -14468.4 -14175.3 -13931.2
 S, KJ/(KG)(K)    10.8141  10.8141  10.8141  10.8141  10.8141  10.8141  10.8141  10.8141

 M, (1/n)          22.056   22.056   22.056   22.056   22.056   22.056   22.056   22.056
 Cp, KJ/(KG)(K)    1.7920   1.7332   1.7332   1.6729   1.6460   1.6261   1.6103   1.5971
 GAMMAs            1.2664   1.2780   1.2780   1.2909   1.2971   1.3018   1.3057   1.3089
 SON VEL,M/SEC      693.7    653.7    653.7    609.8    589.2    573.4    560.4    549.3
 MACH NUMBER        0.000    1.000    1.000    1.507    1.719    1.875    2.003    2.111

 TRANSPORT PROPERTIES (GASES ONLY)
   CONDUCTIVITY IN UNITS OF MILLIWATTS/(CM)(K)

 VISC,MILLIPOISE  0.43315  0.38978  0.38978  0.34365  0.32243  0.30651  0.29362  0.28278

  WITH FROZEN REACTIONS

 Cp, KJ/(KG)(K)    1.7920   1.7332   1.7332   1.6729   1.6460   1.6261   1.6103   1.5971
 CONDUCTIVITY      0.9179   0.7846   0.7846   0.6543   0.5983   0.5580   0.5263   0.5005
 PRANDTL NUMBER    0.8456   0.8610   0.8610   0.8787   0.8870   0.8933   0.8983   0.9024

 PERFORMANCE PARAMETERS

 Ae/At                      1.0000   1.0000   1.2000   1.4000   1.6000   1.8000   2.0000
 CSTAR, M/SEC                930.8    930.8    930.8    930.8    930.8    930.8    930.8
 CF                         0.7023   0.7023   0.9876   1.0879   1.1552   1.2057   1.2457
 Ivac, M/SEC                1165.1   1165.1   1232.7   1276.9   1310.1   1336.5   1358.3
 Isp, M/SEC                  653.7    653.7    919.3   1012.6   1075.3   1122.2   1159.5

 MOLE FRACTIONS

 H2O             0.71103   *O2             0.28897

  * THERMODYNAMIC PROPERTIES FITTED TO 20000.K

    PRODUCTS WHICH WERE CONSIDERED BUT WHOSE MOLE FRACTIONS
    WERE LESS THAN 5.000000E-06 FOR ALL ASSIGNED CONDITIONS

 *H              HO2             *H2             H2O2            *O             
 *OH             O3              H2O(cr)         H2O(L)         

 NOTE. WEIGHT FRACTION OF FUEL IN TOTAL FUELS AND OF OXIDANT IN TOTAL OXIDANTS






 POINT ITN      T            H           O 
   1    1    1008.099     -19.902     -13.551
 Pinf/Pt = 1.812005
   2    3     887.729     -21.898     -13.680
 Pinf/Pt = 1.819722
   2    2     886.909     -21.914     -13.681
 Pinf/Pt = 1.819775
   2    1     886.904     -21.914     -13.681
   3    1     886.904     -21.914     -13.681
   4    3     772.582     -24.389     -13.825
   4    2     764.102     -24.602     -13.837
   4    2     764.252     -24.598     -13.836
   5    3     718.690     -25.828     -13.903
   5    2     709.830     -26.086     -13.916
   5    2     709.921     -26.083     -13.916
   6    3     676.884     -27.102     -13.969
   6    2     669.907     -27.331     -13.981
   6    1     669.946     -27.329     -13.980
   7    3     642.435     -28.277     -14.028
   7    2     638.055     -28.435     -14.036
   7    1     638.067     -28.435     -14.036
   8    3     609.890     -29.508     -14.088
   8    2     611.570     -29.441     -14.085





              THEORETICAL ROCKET PERFORMANCE ASSUMING EQUILIBRIUM

           COMPOSITION DURING EXPANSION FROM INFINITE AREA COMBUSTOR

 Pin =    30.0 PSIA
 CASE =                

             REACTANT                    WT FRACTION      ENERGY      TEMP
                                          (SEE NOTE)     KJ/KG-MOL      K  
 FUEL        H2O(L)                       1.0000000   -285841.390    298.000
 OXIDANT     H2O2(L)                      1.0000000   -187793.400    298.000

 O/F=    8.20000  %FUEL= 10.869565  R,EQ.RATIO= 0.551621  PHI,EQ.RATIO= 0.000000

                 CHAMBER   THROAT     EXIT     EXIT     EXIT     EXIT     EXIT     EXIT
 Pinf/P            1.0000   1.8198   1.8198   3.5640   4.9307   6.3407   7.8167   9.3624
 P, BAR            2.0684   1.1366   1.1366  0.58037  0.41950  0.32621  0.26461  0.22093
 T, K             1008.10   886.90   886.90   764.25   709.92   669.95   638.07   611.57
 RHO, KG/CU M    5.4429-1 3.3997-1 3.3997-1 2.0145-1 1.5675-1 1.2917-1 1.1001-1 9.5829-2
 H, KJ/KG        -6645.48 -6859.11 -6859.11 -7068.01 -7158.17 -7223.57 -7275.16 -7317.65
 U, KJ/KG        -7025.50 -7193.45 -7193.45 -7356.11 -7425.79 -7476.12 -7515.69 -7548.19
 G, KJ/KG        -17393.1 -16314.6 -16314.6 -15215.9 -14726.8 -14366.1 -14077.8 -13837.8
 S, KJ/(KG)(K)    10.6613  10.6613  10.6613  10.6613  10.6613  10.6613  10.6613  10.6613

 M, (1/n)          22.056   22.056   22.056   22.056   22.056   22.056   22.056   22.056
 (dLV/dLP)t      -1.00000 -1.00000 -1.00000 -1.00000 -1.00000 -1.00000 -1.00000 -1.00000
 (dLV/dLT)p        1.0000   1.0000   1.0000   1.0000   1.0000   1.0000   1.0000   1.0000
 Cp, KJ/(KG)(K)    1.7920   1.7332   1.7332   1.6729   1.6460   1.6261   1.6103   1.5971
 GAMMAs            1.2664   1.2779   1.2779   1.2909   1.2971   1.3018   1.3057   1.3089
 SON VEL,M/SEC      693.7    653.7    653.7    609.8    589.2    573.4    560.4    549.3
 MACH NUMBER        0.000    1.000    1.000    1.507    1.719    1.875    2.003    2.111

 TRANSPORT PROPERTIES (GASES ONLY)
   CONDUCTIVITY IN UNITS OF MILLIWATTS/(CM)(K)

 VISC,MILLIPOISE  0.43315  0.38978  0.38978  0.34365  0.32243  0.30651  0.29362  0.28278

  WITH EQUILIBRIUM REACTIONS

 Cp, KJ/(KG)(K)    1.7920   1.7332   1.7332   1.6729   1.6460   1.6261   1.6103   1.5971
 CONDUCTIVITY      0.9179   0.7846   0.7846   0.6543   0.5983   0.5580   0.5263   0.5005
 PRANDTL NUMBER    0.8456   0.8610   0.8610   0.8787   0.8870   0.8933   0.8983   0.9024

  WITH FROZEN REACTIONS

 Cp, KJ/(KG)(K)    1.7920   1.7332   1.7332   1.6729   1.6460   1.6261   1.6103   1.5971
 CONDUCTIVITY      0.9179   0.7846   0.7846   0.6543   0.5983   0.5580   0.5263   0.5005
 PRANDTL NUMBER    0.8456   0.8610   0.8610   0.8787   0.8870   0.8933   0.8983   0.9024

 PERFORMANCE PARAMETERS

 Ae/At                      1.0000   1.0000   1.2000   1.4000   1.6000   1.8000   2.0000
 CSTAR, M/SEC                930.8    930.8    930.8    930.8    930.8    930.8    930.8
 CF                         0.7023   0.7023   0.9876   1.0879   1.1552   1.2056   1.2457
 Ivac, M/SEC                1165.1   1165.1   1232.7   1276.9   1310.1   1336.5   1358.3
 Isp, M/SEC                  653.7    653.7    919.3   1012.6   1075.3   1122.2   1159.5


 MOLE FRACTIONS

 H2O              0.71103  0.71103  0.71103  0.71103  0.71103  0.71103  0.71103  0.71103
 *O2              0.28897  0.28897  0.28897  0.28897  0.28897  0.28897  0.28897  0.28897

  * THERMODYNAMIC PROPERTIES FITTED TO 20000.K

    PRODUCTS WHICH WERE CONSIDERED BUT WHOSE MOLE FRACTIONS
    WERE LESS THAN 5.000000E-06 FOR ALL ASSIGNED CONDITIONS

 *H              HO2             *H2             H2O2            *O             
 *OH             O3              H2O(cr)         H2O(L)         

 NOTE. WEIGHT FRACTION OF FUEL IN TOTAL FUELS AND OF OXIDANT IN TOTAL OXIDANTS





           THEORETICAL ROCKET PERFORMANCE ASSUMING FROZEN COMPOSITION

 Pin =    30.0 PSIA
 CASE =                

             REACTANT                    WT FRACTION      ENERGY      TEMP
                                          (SEE NOTE)     KJ/KG-MOL      K  
 FUEL        H2O(L)                       1.0000000   -285841.390    298.000
 OXIDANT     H2O2(L)                      1.0000000   -187793.400    298.000

 O/F=    8.20000  %FUEL= 10.869565  R,EQ.RATIO= 0.551621  PHI,EQ.RATIO= 0.000000

                 CHAMBER   THROAT     EXIT     EXIT     EXIT     EXIT     EXIT     EXIT
 Pinf/P            1.0000   1.8198   1.8198   3.5640   4.9307   6.3407   7.8167   9.3624
 P, BAR            2.0684   1.1366   1.1366  0.58037  0.41950  0.32621  0.26461  0.22093
 T, K             1008.10   886.90   886.90   764.25   709.92   669.94   638.07   611.57
 RHO, KG/CU M    5.4429-1 3.3997-1 3.3997-1 2.0145-1 1.5675-1 1.2917-1 1.1001-1 9.5830-2
 H, KJ/KG        -6645.48 -6859.11 -6859.11 -7068.01 -7158.17 -7223.57 -7275.15 -7317.65
 U, KJ/KG        -7025.50 -7193.45 -7193.45 -7356.10 -7425.79 -7476.12 -7515.69 -7548.19
 G, KJ/KG        -17393.1 -16314.6 -16314.6 -15215.9 -14726.8 -14366.0 -14077.8 -13837.8
 S, KJ/(KG)(K)    10.6613  10.6613  10.6613  10.6613  10.6613  10.6613  10.6613  10.6613

 M, (1/n)          22.056   22.056   22.056   22.056   22.056   22.056   22.056   22.056
 Cp, KJ/(KG)(K)    1.7920   1.7332   1.7332   1.6729   1.6460   1.6261   1.6103   1.5971
 GAMMAs            1.2664   1.2780   1.2780   1.2909   1.2971   1.3018   1.3057   1.3089
 SON VEL,M/SEC      693.7    653.7    653.7    609.8    589.2    573.4    560.4    549.3
 MACH NUMBER        0.000    1.000    1.000    1.507    1.719    1.875    2.003    2.111

 TRANSPORT PROPERTIES (GASES ONLY)
   CONDUCTIVITY IN UNITS OF MILLIWATTS/(CM)(K)

 VISC,MILLIPOISE  0.43315  0.38978  0.38978  0.34365  0.32243  0.30651  0.29362  0.28278

  WITH FROZEN REACTIONS

 Cp, KJ/(KG)(K)    1.7920   1.7332   1.7332   1.6729   1.6460   1.6261   1.6103   1.5971
 CONDUCTIVITY      0.9179   0.7846   0.7846   0.6543   0.5983   0.5580   0.5263   0.5005
 PRANDTL NUMBER    0.8456   0.8610   0.8610   0.8787   0.8870   0.8933   0.8983   0.9024

 PERFORMANCE PARAMETERS

 Ae/At                      1.0000   1.0000   1.2000   1.4000   1.6000   1.8000   2.0000
 CSTAR, M/SEC                930.8    930.8    930.8    930.8    930.8    930.8    930.8
 CF                         0.7023   0.7023   0.9876   1.0879   1.1552   1.2057   1.2457
 Ivac, M/SEC                1165.1   1165.1   1232.7   1276.9   1310.1   1336.5   1358.3
 Isp, M/SEC                  653.7    653.7    919.3   1012.6   1075.3   1122.2   1159.5

 MOLE FRACTIONS

 H2O             0.71103   *O2             0.28897

  * THERMODYNAMIC PROPERTIES FITTED TO 20000.K

    PRODUCTS WHICH WERE CONSIDERED BUT WHOSE MOLE FRACTIONS
    WERE LESS THAN 5.000000E-06 FOR ALL ASSIGNED CONDITIONS

 *H              HO2             *H2             H2O2            *O             
 *OH             O3              H2O(cr)         H2O(L)         

 NOTE. WEIGHT FRACTION OF FUEL IN TOTAL FUELS AND OF OXIDANT IN TOTAL OXIDANTS






 POINT ITN      T            H           O 
   1    1    1008.099     -19.830     -13.407
 Pinf/Pt = 1.812006
   2    3     887.729     -21.826     -13.536
 Pinf/Pt = 1.819722
   2    2     886.909     -21.842     -13.537
 Pinf/Pt = 1.819775
   2    1     886.904     -21.842     -13.537
   3    1     886.904     -21.842     -13.537
   4    3     772.582     -24.317     -13.681
   4    2     764.102     -24.530     -13.693
   4    2     764.252     -24.526     -13.693
   5    3     718.690     -25.756     -13.759
   5    2     709.830     -26.014     -13.772
   5    2     709.920     -26.011     -13.772
   6    3     676.884     -27.031     -13.825
   6    2     669.907     -27.259     -13.837
   6    1     669.946     -27.257     -13.837
   7    3     642.435     -28.205     -13.884
   7    2     638.055     -28.363     -13.892
   7    1     638.067     -28.363     -13.892
   8    3     609.890     -29.436     -13.944
   8    2     611.570     -29.369     -13.941





              THEORETICAL ROCKET PERFORMANCE ASSUMING EQUILIBRIUM

           COMPOSITION DURING EXPANSION FROM INFINITE AREA COMBUSTOR

 Pin =    40.0 PSIA
 CASE =                

             REACTANT                    WT FRACTION      ENERGY      TEMP
                                          (SEE NOTE)     KJ/KG-MOL      K  
 FUEL        H2O(L)                       1.0000000   -285841.390    298.000
 OXIDANT     H2O2(L)                      1.0000000   -187793.400    298.000

 O/F=    8.20000  %FUEL= 10.869565  R,EQ.RATIO= 0.551621  PHI,EQ.RATIO= 0.000000

                 CHAMBER   THROAT     EXIT     EXIT     EXIT     EXIT     EXIT     EXIT
 Pinf/P            1.0000   1.8198   1.8198   3.5640   4.9307   6.3407   7.8167   9.3624
 P, BAR            2.7579   1.5155   1.5155  0.77383  0.55933  0.43495  0.35282  0.29457
 T, K             1008.10   886.90   886.90   764.25   709.92   669.95   638.07   611.57
 RHO, KG/CU M    7.2572-1 4.5329-1 4.5329-1 2.6860-1 2.0900-1 1.7222-1 1.4668-1 1.2777-1
 H, KJ/KG        -6645.48 -6859.11 -6859.11 -7068.01 -7158.17 -7223.57 -7275.16 -7317.65
 U, KJ/KG        -7025.50 -7193.45 -7193.45 -7356.11 -7425.79 -7476.12 -7515.69 -7548.19
 G, KJ/KG        -17283.8 -16218.5 -16218.5 -15133.0 -14649.8 -14293.4 -14008.6 -13771.4
 S, KJ/(KG)(K)    10.5528  10.5528  10.5528  10.5528  10.5528  10.5528  10.5528  10.5528

 M, (1/n)          22.056   22.056   22.056   22.056   22.056   22.056   22.056   22.056
 (dLV/dLP)t      -1.00000 -1.00000 -1.00000 -1.00000 -1.00000 -1.00000 -1.00000 -1.00000
 (dLV/dLT)p        1.0000   1.0000   1.0000   1.0000   1.0000   1.0000   1.0000   1.0000
 Cp, KJ/(KG)(K)    1.7920   1.7332   1.7332   1.6729   1.6460   1.6261   1.6103   1.5971
 GAMMAs            1.2664   1.2779   1.2779   1.2909   1.2971   1.3018   1.3057   1.3089
 SON VEL,M/SEC      693.7    653.7    653.7    609.8    589.2    573.4    560.4    549.3
 MACH NUMBER        0.000    1.000    1.000    1.507    1.719    1.875    2.003    2.111

 TRANSPORT PROPERTIES (GASES ONLY)
   CONDUCTIVITY IN UNITS OF MILLIWATTS/(CM)(K)

 VISC,MILLIPOISE  0.43315  0.38978  0.38978  0.34365  0.32243  0.30651  0.29362  0.28278

  WITH EQUILIBRIUM REACTIONS

 Cp, KJ/(KG)(K)    1.7920   1.7332   1.7332   1.6729   1.6460   1.6261   1.6103   1.5971
 CONDUCTIVITY      0.9179   0.7846   0.7846   0.6543   0.5983   0.5580   0.5263   0.5005
 PRANDTL NUMBER    0.8456   0.8610   0.8610   0.8787   0.8870   0.8933   0.8983   0.9024

  WITH FROZEN REACTIONS

 Cp, KJ/(KG)(K)    1.7920   1.7332   1.7332   1.6729   1.6460   1.6261   1.6103   1.5971
 CONDUCTIVITY      0.9179   0.7846   0.7846   0.6543   0.5983   0.5580   0.5263   0.5005
 PRANDTL NUMBER    0.8456   0.8610   0.8610   0.8787   0.8870   0.8933   0.8983   0.9024

 PERFORMANCE PARAMETERS

 Ae/At                      1.0000   1.0000   1.2000   1.4000   1.6000   1.8000   2.0000
 CSTAR, M/SEC                930.8    930.8    930.8    930.8    930.8    930.8    930.8
 CF                         0.7023   0.7023   0.9876   1.0879   1.1552   1.2057   1.2457
 Ivac, M/SEC                1165.1   1165.1   1232.7   1276.9   1310.1   1336.5   1358.3
 Isp, M/SEC                  653.7    653.7    919.3   1012.6   1075.3   1122.2   1159.5


 MOLE FRACTIONS

 H2O              0.71103  0.71103  0.71103  0.71103  0.71103  0.71103  0.71103  0.71103
 *O2              0.28897  0.28897  0.28897  0.28897  0.28897  0.28897  0.28897  0.28897

  * THERMODYNAMIC PROPERTIES FITTED TO 20000.K

    PRODUCTS WHICH WERE CONSIDERED BUT WHOSE MOLE FRACTIONS
    WERE LESS THAN 5.000000E-06 FOR ALL ASSIGNED CONDITIONS

 *H              HO2             *H2             H2O2            *O             
 *OH             O3              H2O(cr)         H2O(L)         

 NOTE. WEIGHT FRACTION OF FUEL IN TOTAL FUELS AND OF OXIDANT IN TOTAL OXIDANTS





           THEORETICAL ROCKET PERFORMANCE ASSUMING FROZEN COMPOSITION

 Pin =    40.0 PSIA
 CASE =                

             REACTANT                    WT FRACTION      ENERGY      TEMP
                                          (SEE NOTE)     KJ/KG-MOL      K  
 FUEL        H2O(L)                       1.0000000   -285841.390    298.000
 OXIDANT     H2O2(L)                      1.0000000   -187793.400    298.000

 O/F=    8.20000  %FUEL= 10.869565  R,EQ.RATIO= 0.551621  PHI,EQ.RATIO= 0.000000

                 CHAMBER   THROAT     EXIT     EXIT     EXIT     EXIT     EXIT     EXIT
 Pinf/P            1.0000   1.8198   1.8198   3.5640   4.9307   6.3407   7.8167   9.3624
 P, BAR            2.7579   1.5155   1.5155  0.77383  0.55933  0.43495  0.35282  0.29457
 T, K             1008.10   886.90   886.90   764.25   709.92   669.94   638.07   611.57
 RHO, KG/CU M    7.2572-1 4.5329-1 4.5329-1 2.6860-1 2.0900-1 1.7222-1 1.4668-1 1.2777-1
 H, KJ/KG        -6645.48 -6859.11 -6859.11 -7068.01 -7158.17 -7223.57 -7275.15 -7317.65
 U, KJ/KG        -7025.50 -7193.45 -7193.45 -7356.10 -7425.79 -7476.12 -7515.69 -7548.19
 G, KJ/KG        -17283.8 -16218.4 -16218.4 -15133.0 -14649.8 -14293.4 -14008.6 -13771.4
 S, KJ/(KG)(K)    10.5528  10.5528  10.5528  10.5528  10.5528  10.5528  10.5528  10.5528

 M, (1/n)          22.056   22.056   22.056   22.056   22.056   22.056   22.056   22.056
 Cp, KJ/(KG)(K)    1.7920   1.7332   1.7332   1.6729   1.6460   1.6261   1.6103   1.5971
 GAMMAs            1.2664   1.2780   1.2780   1.2909   1.2971   1.3018   1.3057   1.3089
 SON VEL,M/SEC      693.7    653.7    653.7    609.8    589.2    573.4    560.4    549.3
 MACH NUMBER        0.000    1.000    1.000    1.507    1.719    1.875    2.003    2.111

 TRANSPORT PROPERTIES (GASES ONLY)
   CONDUCTIVITY IN UNITS OF MILLIWATTS/(CM)(K)

 VISC,MILLIPOISE  0.43315  0.38978  0.38978  0.34365  0.32243  0.30651  0.29362  0.28278

  WITH FROZEN REACTIONS

 Cp, KJ/(KG)(K)    1.7920   1.7332   1.7332   1.6729   1.6460   1.6261   1.6103   1.5971
 CONDUCTIVITY      0.9179   0.7846   0.7846   0.6543   0.5983   0.5580   0.5263   0.5005
 PRANDTL NUMBER    0.8456   0.8610   0.8610   0.8787   0.8870   0.8933   0.8983   0.9024

 PERFORMANCE PARAMETERS

 Ae/At                      1.0000   1.0000   1.2000   1.4000   1.6000   1.8000   2.0000
 CSTAR, M/SEC                930.8    930.8    930.8    930.8    930.8    930.8    930.8
 CF                         0.7023   0.7023   0.9876   1.0879   1.1552   1.2057   1.2457
 Ivac, M/SEC                1165.1   1165.1   1232.7   1276.9   1310.1   1336.5   1358.3
 Isp, M/SEC                  653.7    653.7    919.3   1012.6   1075.3   1122.2   1159.5

 MOLE FRACTIONS

 H2O             0.71103   *O2             0.28897

  * THERMODYNAMIC PROPERTIES FITTED TO 20000.K

    PRODUCTS WHICH WERE CONSIDERED BUT WHOSE MOLE FRACTIONS
    WERE LESS THAN 5.000000E-06 FOR ALL ASSIGNED CONDITIONS

 *H              HO2             *H2             H2O2            *O             
 *OH             O3              H2O(cr)         H2O(L)         

 NOTE. WEIGHT FRACTION OF FUEL IN TOTAL FUELS AND OF OXIDANT IN TOTAL OXIDANTS






 POINT ITN      T            H           O 
   1    1    1008.099     -19.774     -13.296
 Pinf/Pt = 1.812006
   2    3     887.729     -21.771     -13.425
 Pinf/Pt = 1.819722
   2    2     886.909     -21.786     -13.426
 Pinf/Pt = 1.819775
   2    1     886.904     -21.786     -13.426
   3    1     886.904     -21.786     -13.426
   4    3     772.582     -24.261     -13.569
   4    2     764.102     -24.474     -13.581
   4    2     764.252     -24.471     -13.581
   5    3     718.690     -25.701     -13.647
   5    2     709.830     -25.958     -13.661
   5    2     709.920     -25.955     -13.661
   6    3     676.884     -26.975     -13.714
   6    2     669.907     -27.203     -13.725
   6    1     669.946     -27.202     -13.725
   7    3     642.435     -28.149     -13.773
   7    2     638.055     -28.308     -13.780
   7    1     638.067     -28.307     -13.780
   8    3     609.890     -29.380     -13.833
   8    2     611.570     -29.314     -13.830





              THEORETICAL ROCKET PERFORMANCE ASSUMING EQUILIBRIUM

           COMPOSITION DURING EXPANSION FROM INFINITE AREA COMBUSTOR

 Pin =    50.0 PSIA
 CASE =                

             REACTANT                    WT FRACTION      ENERGY      TEMP
                                          (SEE NOTE)     KJ/KG-MOL      K  
 FUEL        H2O(L)                       1.0000000   -285841.390    298.000
 OXIDANT     H2O2(L)                      1.0000000   -187793.400    298.000

 O/F=    8.20000  %FUEL= 10.869565  R,EQ.RATIO= 0.551621  PHI,EQ.RATIO= 0.000000

                 CHAMBER   THROAT     EXIT     EXIT     EXIT     EXIT     EXIT     EXIT
 Pinf/P            1.0000   1.8198   1.8198   3.5640   4.9307   6.3407   7.8167   9.3624
 P, BAR            3.4474   1.8944   1.8944  0.96729  0.69917  0.54369  0.44102  0.36821
 T, K             1008.10   886.90   886.90   764.25   709.92   669.95   638.07   611.57
 RHO, KG/CU M    9.0715-1 5.6661-1 5.6661-1 3.3575-1 2.6126-1 2.1528-1 1.8335-1 1.5972-1
 H, KJ/KG        -6645.48 -6859.11 -6859.11 -7068.01 -7158.17 -7223.57 -7275.16 -7317.65
 U, KJ/KG        -7025.50 -7193.45 -7193.45 -7356.11 -7425.79 -7476.12 -7515.69 -7548.19
 G, KJ/KG        -17199.0 -16143.9 -16143.9 -15068.7 -14590.1 -14237.0 -13954.9 -13720.0
 S, KJ/(KG)(K)    10.4687  10.4687  10.4687  10.4687  10.4687  10.4687  10.4687  10.4687

 M, (1/n)          22.056   22.056   22.056   22.056   22.056   22.056   22.056   22.056
 (dLV/dLP)t      -1.00000 -1.00000 -1.00000 -1.00000 -1.00000 -1.00000 -1.00000 -1.00000
 (dLV/dLT)p        1.0000   1.0000   1.0000   1.0000   1.0000   1.0000   1.0000   1.0000
 Cp, KJ/(KG)(K)    1.7920   1.7332   1.7332   1.6729   1.6460   1.6261   1.6103   1.5971
 GAMMAs            1.2664   1.2779   1.2779   1.2909   1.2971   1.3018   1.3057   1.3089
 SON VEL,M/SEC      693.7    653.7    653.7    609.8    589.2    573.4    560.4    549.3
 MACH NUMBER        0.000    1.000    1.000    1.507    1.719    1.875    2.003    2.111

 TRANSPORT PROPERTIES (GASES ONLY)
   CONDUCTIVITY IN UNITS OF MILLIWATTS/(CM)(K)

 VISC,MILLIPOISE  0.43315  0.38978  0.38978  0.34365  0.32243  0.30651  0.29362  0.28278

  WITH EQUILIBRIUM REACTIONS

 Cp, KJ/(KG)(K)    1.7920   1.7332   1.7332   1.6729   1.6460   1.6261   1.6103   1.5971
 CONDUCTIVITY      0.9179   0.7846   0.7846   0.6543   0.5983   0.5580   0.5263   0.5005
 PRANDTL NUMBER    0.8456   0.8610   0.8610   0.8787   0.8870   0.8933   0.8983   0.9024

  WITH FROZEN REACTIONS

 Cp, KJ/(KG)(K)    1.7920   1.7332   1.7332   1.6729   1.6460   1.6261   1.6103   1.5971
 CONDUCTIVITY      0.9179   0.7846   0.7846   0.6543   0.5983   0.5580   0.5263   0.5005
 PRANDTL NUMBER    0.8456   0.8610   0.8610   0.8787   0.8870   0.8933   0.8983   0.9024

 PERFORMANCE PARAMETERS

 Ae/At                      1.0000   1.0000   1.2000   1.4000   1.6000   1.8000   2.0000
 CSTAR, M/SEC                930.8    930.8    930.8    930.8    930.8    930.8    930.8
 CF                         0.7023   0.7023   0.9876   1.0879   1.1552   1.2057   1.2457
 Ivac, M/SEC                1165.1   1165.1   1232.7   1276.9   1310.1   1336.5   1358.3
 Isp, M/SEC                  653.7    653.7    919.3   1012.6   1075.3   1122.2   1159.5


 MOLE FRACTIONS

 H2O              0.71103  0.71103  0.71103  0.71103  0.71103  0.71103  0.71103  0.71103
 *O2              0.28897  0.28897  0.28897  0.28897  0.28897  0.28897  0.28897  0.28897

  * THERMODYNAMIC PROPERTIES FITTED TO 20000.K

    PRODUCTS WHICH WERE CONSIDERED BUT WHOSE MOLE FRACTIONS
    WERE LESS THAN 5.000000E-06 FOR ALL ASSIGNED CONDITIONS

 *H              HO2             *H2             H2O2            *O             
 *OH             O3              H2O(cr)         H2O(L)         

 NOTE. WEIGHT FRACTION OF FUEL IN TOTAL FUELS AND OF OXIDANT IN TOTAL OXIDANTS





           THEORETICAL ROCKET PERFORMANCE ASSUMING FROZEN COMPOSITION

 Pin =    50.0 PSIA
 CASE =                

             REACTANT                    WT FRACTION      ENERGY      TEMP
                                          (SEE NOTE)     KJ/KG-MOL      K  
 FUEL        H2O(L)                       1.0000000   -285841.390    298.000
 OXIDANT     H2O2(L)                      1.0000000   -187793.400    298.000

 O/F=    8.20000  %FUEL= 10.869565  R,EQ.RATIO= 0.551621  PHI,EQ.RATIO= 0.000000

                 CHAMBER   THROAT     EXIT     EXIT     EXIT     EXIT     EXIT     EXIT
 Pinf/P            1.0000   1.8198   1.8198   3.5640   4.9307   6.3407   7.8167   9.3624
 P, BAR            3.4474   1.8944   1.8944  0.96729  0.69917  0.54369  0.44102  0.36821
 T, K             1008.10   886.90   886.90   764.25   709.92   669.95   638.07   611.57
 RHO, KG/CU M    9.0715-1 5.6661-1 5.6661-1 3.3575-1 2.6126-1 2.1528-1 1.8335-1 1.5972-1
 H, KJ/KG        -6645.48 -6859.11 -6859.11 -7068.01 -7158.17 -7223.57 -7275.16 -7317.65
 U, KJ/KG        -7025.50 -7193.45 -7193.45 -7356.10 -7425.79 -7476.12 -7515.69 -7548.19
 G, KJ/KG        -17199.0 -16143.8 -16143.8 -15068.7 -14590.1 -14237.0 -13954.9 -13720.0
 S, KJ/(KG)(K)    10.4687  10.4687  10.4687  10.4687  10.4687  10.4687  10.4687  10.4687

 M, (1/n)          22.056   22.056   22.056   22.056   22.056   22.056   22.056   22.056
 Cp, KJ/(KG)(K)    1.7920   1.7332   1.7332   1.6729   1.6460   1.6261   1.6103   1.5971
 GAMMAs            1.2664   1.2780   1.2780   1.2909   1.2971   1.3018   1.3057   1.3089
 SON VEL,M/SEC      693.7    653.7    653.7    609.8    589.2    573.4    560.4    549.3
 MACH NUMBER        0.000    1.000    1.000    1.507    1.719    1.875    2.003    2.111

 TRANSPORT PROPERTIES (GASES ONLY)
   CONDUCTIVITY IN UNITS OF MILLIWATTS/(CM)(K)

 VISC,MILLIPOISE  0.43315  0.38978  0.38978  0.34365  0.32243  0.30651  0.29362  0.28278

  WITH FROZEN REACTIONS

 Cp, KJ/(KG)(K)    1.7920   1.7332   1.7332   1.6729   1.6460   1.6261   1.6103   1.5971
 CONDUCTIVITY      0.9179   0.7846   0.7846   0.6543   0.5983   0.5580   0.5263   0.5005
 PRANDTL NUMBER    0.8456   0.8610   0.8610   0.8787   0.8870   0.8933   0.8983   0.9024

 PERFORMANCE PARAMETERS

 Ae/At                      1.0000   1.0000   1.2000   1.4000   1.6000   1.8000   2.0000
 CSTAR, M/SEC                930.8    930.8    930.8    930.8    930.8    930.8    930.8
 CF                         0.7023   0.7023   0.9876   1.0879   1.1552   1.2057   1.2457
 Ivac, M/SEC                1165.1   1165.1   1232.7   1276.9   1310.1   1336.5   1358.3
 Isp, M/SEC                  653.7    653.7    919.3   1012.6   1075.3   1122.2   1159.5

 MOLE FRACTIONS

 H2O             0.71103   *O2             0.28897

  * THERMODYNAMIC PROPERTIES FITTED TO 20000.K

    PRODUCTS WHICH WERE CONSIDERED BUT WHOSE MOLE FRACTIONS
    WERE LESS THAN 5.000000E-06 FOR ALL ASSIGNED CONDITIONS

 *H              HO2             *H2             H2O2            *O             
 *OH             O3              H2O(cr)         H2O(L)         

 NOTE. WEIGHT FRACTION OF FUEL IN TOTAL FUELS AND OF OXIDANT IN TOTAL OXIDANTS






 O/F =   8.400000

                       EFFECTIVE FUEL     EFFECTIVE OXIDANT        MIXTURE
 ENTHALPY                  h(2)/R              h(1)/R               h0/R
 (KG-MOL)(K)/KG       -0.19083035E+04     -0.66401406E+03     -0.79638527E+03

 KG-FORM.WT./KG             bi(2)               bi(1)               b0i
  *H                   0.11101687E+00      0.58798142E-01      0.64353326E-01
  *O                   0.55508435E-01      0.58798142E-01      0.58448174E-01

 POINT ITN      T            H           O 
   1    2    1013.753     -19.929     -13.760
 Pinf/Pt = 1.811727
   2    3     892.890     -21.911     -13.889
 Pinf/Pt = 1.819438
   2    2     892.067     -21.926     -13.889
 Pinf/Pt = 1.819490
   2    1     892.061     -21.927     -13.889
   3    1     892.061     -21.927     -13.889
   4    3     777.213     -24.384     -14.033
   4    2     768.723     -24.595     -14.045
   4    2     768.873     -24.591     -14.044
   5    3     723.061     -25.813     -14.110
   5    2     714.201     -26.067     -14.124
   5    2     714.291     -26.065     -14.124
   6    3     681.049     -27.078     -14.176
   6    2     674.088     -27.303     -14.188
   6    1     674.127     -27.301     -14.188
   7    3     646.426     -28.244     -14.235
   7    2     642.081     -28.399     -14.243
   7    1     642.093     -28.399     -14.243
   8    3     613.759     -29.464     -14.295
   8    2     615.464     -29.397     -14.292





              THEORETICAL ROCKET PERFORMANCE ASSUMING EQUILIBRIUM

           COMPOSITION DURING EXPANSION FROM INFINITE AREA COMBUSTOR

 Pin =    20.0 PSIA
 CASE =                

             REACTANT                    WT FRACTION      ENERGY      TEMP
                                          (SEE NOTE)     KJ/KG-MOL      K  
 FUEL        H2O(L)                       1.0000000   -285841.390    298.000
 OXIDANT     H2O2(L)                      1.0000000   -187793.400    298.000

 O/F=    8.40000  %FUEL= 10.638298  R,EQ.RATIO= 0.550516  PHI,EQ.RATIO= 0.000000

                 CHAMBER   THROAT     EXIT     EXIT     EXIT     EXIT     EXIT     EXIT
 Pinf/P            1.0000   1.8195   1.8195   3.5628   4.9286   6.3377   7.8126   9.3570
 P, BAR            1.3789  0.75787  0.75787  0.38704  0.27978  0.21758  0.17650  0.14737
 T, K             1013.75   892.06   892.06   768.87   714.29   674.13   642.09   615.46
 RHO, KG/CU M    3.6104-1 2.2550-1 2.2550-1 1.3361-1 1.0397-1 8.5669-2 7.2963-2 6.3556-2
 H, KJ/KG        -6621.55 -6836.22 -6836.22 -7046.18 -7136.82 -7202.57 -7254.43 -7297.16
 U, KJ/KG        -7003.49 -7172.31 -7172.31 -7335.85 -7405.92 -7456.54 -7496.34 -7529.04
 G, KJ/KG        -17589.0 -16487.1 -16487.1 -15364.3 -14864.5 -14495.7 -14201.0 -13955.6
 S, KJ/(KG)(K)    10.8186  10.8186  10.8186  10.8186  10.8186  10.8186  10.8186  10.8186

 M, (1/n)          22.069   22.069   22.069   22.069   22.069   22.069   22.069   22.069
 (dLV/dLP)t      -1.00000 -1.00000 -1.00000 -1.00000 -1.00000 -1.00000 -1.00000 -1.00000
 (dLV/dLT)p        1.0000   1.0000   1.0000   1.0000   1.0000   1.0000   1.0000   1.0000
 Cp, KJ/(KG)(K)    1.7934   1.7345   1.7345   1.6741   1.6470   1.6271   1.6112   1.5980
 GAMMAs            1.2659   1.2775   1.2775   1.2904   1.2966   1.3013   1.3052   1.3085
 SON VEL,M/SEC      695.3    655.2    655.2    611.4    590.7    574.9    561.9    550.8
 MACH NUMBER        0.000    1.000    1.000    1.507    1.719    1.875    2.002    2.110

 TRANSPORT PROPERTIES (GASES ONLY)
   CONDUCTIVITY IN UNITS OF MILLIWATTS/(CM)(K)

 VISC,MILLIPOISE  0.43526  0.39182  0.39182  0.34559  0.32432  0.30835  0.29542  0.28455

  WITH EQUILIBRIUM REACTIONS

 Cp, KJ/(KG)(K)    1.7934   1.7345   1.7345   1.6741   1.6470   1.6271   1.6112   1.5980
 CONDUCTIVITY      0.9240   0.7901   0.7901   0.6591   0.6028   0.5622   0.5303   0.5043
 PRANDTL NUMBER    0.8448   0.8602   0.8602   0.8778   0.8862   0.8925   0.8975   0.9016

  WITH FROZEN REACTIONS

 Cp, KJ/(KG)(K)    1.7934   1.7345   1.7345   1.6741   1.6470   1.6271   1.6112   1.5980
 CONDUCTIVITY      0.9240   0.7901   0.7901   0.6591   0.6028   0.5622   0.5303   0.5043
 PRANDTL NUMBER    0.8448   0.8602   0.8602   0.8778   0.8862   0.8925   0.8975   0.9016

 PERFORMANCE PARAMETERS

 Ae/At                      1.0000   1.0000   1.2000   1.4000   1.6000   1.8000   2.0000
 CSTAR, M/SEC                933.2    933.2    933.2    933.2    933.2    933.2    933.2
 CF                         0.7021   0.7021   0.9875   1.0878   1.1551   1.2055   1.2456
 Ivac, M/SEC                1168.2   1168.2   1235.9   1280.2   1313.6   1340.1   1361.9
 Isp, M/SEC                  655.2    655.2    921.5   1015.1   1078.0   1125.1   1162.4


 MOLE FRACTIONS

 H2O              0.71011  0.71011  0.71011  0.71011  0.71011  0.71011  0.71011  0.71011
 *O2              0.28989  0.28989  0.28989  0.28989  0.28989  0.28989  0.28989  0.28989

  * THERMODYNAMIC PROPERTIES FITTED TO 20000.K

    PRODUCTS WHICH WERE CONSIDERED BUT WHOSE MOLE FRACTIONS
    WERE LESS THAN 5.000000E-06 FOR ALL ASSIGNED CONDITIONS

 *H              HO2             *H2             H2O2            *O             
 *OH             O3              H2O(cr)         H2O(L)         

 NOTE. WEIGHT FRACTION OF FUEL IN TOTAL FUELS AND OF OXIDANT IN TOTAL OXIDANTS





           THEORETICAL ROCKET PERFORMANCE ASSUMING FROZEN COMPOSITION

 Pin =    20.0 PSIA
 CASE =                

             REACTANT                    WT FRACTION      ENERGY      TEMP
                                          (SEE NOTE)     KJ/KG-MOL      K  
 FUEL        H2O(L)                       1.0000000   -285841.390    298.000
 OXIDANT     H2O2(L)                      1.0000000   -187793.400    298.000

 O/F=    8.40000  %FUEL= 10.638298  R,EQ.RATIO= 0.550516  PHI,EQ.RATIO= 0.000000

                 CHAMBER   THROAT     EXIT     EXIT     EXIT     EXIT     EXIT     EXIT
 Pinf/P            1.0000   1.8195   1.8195   3.5628   4.9286   6.3377   7.8126   9.3570
 P, BAR            1.3789  0.75787  0.75787  0.38704  0.27978  0.21758  0.17650  0.14737
 T, K             1013.75   892.06   892.06   768.87   714.29   674.13   642.09   615.46
 RHO, KG/CU M    3.6104-1 2.2550-1 2.2550-1 1.3361-1 1.0397-1 8.5669-2 7.2963-2 6.3556-2
 H, KJ/KG        -6621.55 -6836.22 -6836.22 -7046.18 -7136.81 -7202.57 -7254.43 -7297.16
 U, KJ/KG        -7003.49 -7172.31 -7172.31 -7335.85 -7405.92 -7456.54 -7496.34 -7529.04
 G, KJ/KG        -17589.0 -16487.1 -16487.1 -15364.3 -14864.4 -14495.7 -14201.0 -13955.6
 S, KJ/(KG)(K)    10.8186  10.8186  10.8186  10.8186  10.8186  10.8186  10.8186  10.8186

 M, (1/n)          22.069   22.069   22.069   22.069   22.069   22.069   22.069   22.069
 Cp, KJ/(KG)(K)    1.7934   1.7345   1.7345   1.6741   1.6470   1.6271   1.6112   1.5980
 GAMMAs            1.2659   1.2775   1.2775   1.2904   1.2966   1.3013   1.3052   1.3085
 SON VEL,M/SEC      695.3    655.2    655.2    611.4    590.7    574.9    561.9    550.8
 MACH NUMBER        0.000    1.000    1.000    1.507    1.719    1.875    2.002    2.110

 TRANSPORT PROPERTIES (GASES ONLY)
   CONDUCTIVITY IN UNITS OF MILLIWATTS/(CM)(K)

 VISC,MILLIPOISE  0.43526  0.39182  0.39182  0.34558  0.32432  0.30835  0.29542  0.28455

  WITH FROZEN REACTIONS

 Cp, KJ/(KG)(K)    1.7934   1.7345   1.7345   1.6741   1.6470   1.6271   1.6112   1.5980
 CONDUCTIVITY      0.9240   0.7901   0.7901   0.6590   0.6028   0.5622   0.5303   0.5043
 PRANDTL NUMBER    0.8448   0.8602   0.8602   0.8778   0.8862   0.8925   0.8975   0.9016

 PERFORMANCE PARAMETERS

 Ae/At                      1.0000   1.0000   1.2000   1.4000   1.6000   1.8000   2.0000
 CSTAR, M/SEC                933.2    933.2    933.2    933.2    933.2    933.2    933.2
 CF                         0.7021   0.7021   0.9875   1.0878   1.1551   1.2055   1.2456
 Ivac, M/SEC                1168.2   1168.2   1235.9   1280.2   1313.6   1340.1   1361.9
 Isp, M/SEC                  655.2    655.2    921.5   1015.1   1078.0   1125.1   1162.4

 MOLE FRACTIONS

 H2O             0.71011   *O2             0.28989

  * THERMODYNAMIC PROPERTIES FITTED TO 20000.K

    PRODUCTS WHICH WERE CONSIDERED BUT WHOSE MOLE FRACTIONS
    WERE LESS THAN 5.000000E-06 FOR ALL ASSIGNED CONDITIONS

 *H              HO2             *H2             H2O2            *O             
 *OH             O3              H2O(cr)         H2O(L)         

 NOTE. WEIGHT FRACTION OF FUEL IN TOTAL FUELS AND OF OXIDANT IN TOTAL OXIDANTS






 POINT ITN      T            H           O 
   1    1    1013.753     -19.828     -13.557
 Pinf/Pt = 1.811728
   2    3     892.890     -21.810     -13.686
 Pinf/Pt = 1.819438
   2    2     892.067     -21.825     -13.687
 Pinf/Pt = 1.819491
   2    1     892.061     -21.825     -13.687
   3    1     892.061     -21.825     -13.687
   4    3     777.212     -24.283     -13.830
   4    2     768.723     -24.493     -13.842
   4    2     768.873     -24.490     -13.842
   5    3     723.061     -25.712     -13.908
   5    2     714.201     -25.966     -13.921
   5    2     714.291     -25.963     -13.921
   6    3     681.049     -26.977     -13.974
   6    2     674.088     -27.201     -13.985
   6    1     674.127     -27.200     -13.985
   7    3     646.426     -28.142     -14.033
   7    2     642.081     -28.298     -14.040
   7    1     642.093     -28.297     -14.040
   8    3     613.759     -29.363     -14.092
   8    2     615.464     -29.296     -14.089





              THEORETICAL ROCKET PERFORMANCE ASSUMING EQUILIBRIUM

           COMPOSITION DURING EXPANSION FROM INFINITE AREA COMBUSTOR

 Pin =    30.0 PSIA
 CASE =                

             REACTANT                    WT FRACTION      ENERGY      TEMP
                                          (SEE NOTE)     KJ/KG-MOL      K  
 FUEL        H2O(L)                       1.0000000   -285841.390    298.000
 OXIDANT     H2O2(L)                      1.0000000   -187793.400    298.000

 O/F=    8.40000  %FUEL= 10.638298  R,EQ.RATIO= 0.550516  PHI,EQ.RATIO= 0.000000

                 CHAMBER   THROAT     EXIT     EXIT     EXIT     EXIT     EXIT     EXIT
 Pinf/P            1.0000   1.8195   1.8195   3.5628   4.9286   6.3377   7.8126   9.3570
 P, BAR            2.0684   1.1368   1.1368  0.58056  0.41968  0.32637  0.26476  0.22106
 T, K             1013.75   892.06   892.06   768.87   714.29   674.13   642.09   615.46
 RHO, KG/CU M    5.4157-1 3.3825-1 3.3825-1 2.0042-1 1.5595-1 1.2850-1 1.0944-1 9.5334-2
 H, KJ/KG        -6621.55 -6836.22 -6836.22 -7046.18 -7136.82 -7202.57 -7254.43 -7297.16
 U, KJ/KG        -7003.49 -7172.31 -7172.31 -7335.85 -7405.92 -7456.54 -7496.34 -7529.04
 G, KJ/KG        -17434.1 -16350.8 -16350.8 -15246.9 -14755.3 -14392.7 -14102.9 -13861.6
 S, KJ/(KG)(K)    10.6659  10.6659  10.6659  10.6659  10.6659  10.6659  10.6659  10.6659

 M, (1/n)          22.069   22.069   22.069   22.069   22.069   22.069   22.069   22.069
 (dLV/dLP)t      -1.00000 -1.00000 -1.00000 -1.00000 -1.00000 -1.00000 -1.00000 -1.00000
 (dLV/dLT)p        1.0000   1.0000   1.0000   1.0000   1.0000   1.0000   1.0000   1.0000
 Cp, KJ/(KG)(K)    1.7934   1.7345   1.7345   1.6741   1.6470   1.6271   1.6112   1.5980
 GAMMAs            1.2659   1.2775   1.2775   1.2904   1.2966   1.3013   1.3052   1.3085
 SON VEL,M/SEC      695.3    655.2    655.2    611.4    590.7    574.9    561.9    550.8
 MACH NUMBER        0.000    1.000    1.000    1.507    1.719    1.875    2.002    2.110

 TRANSPORT PROPERTIES (GASES ONLY)
   CONDUCTIVITY IN UNITS OF MILLIWATTS/(CM)(K)

 VISC,MILLIPOISE  0.43526  0.39182  0.39182  0.34559  0.32432  0.30835  0.29542  0.28455

  WITH EQUILIBRIUM REACTIONS

 Cp, KJ/(KG)(K)    1.7934   1.7345   1.7345   1.6741   1.6470   1.6271   1.6112   1.5980
 CONDUCTIVITY      0.9240   0.7901   0.7901   0.6591   0.6028   0.5622   0.5303   0.5043
 PRANDTL NUMBER    0.8448   0.8602   0.8602   0.8778   0.8862   0.8925   0.8975   0.9016

  WITH FROZEN REACTIONS

 Cp, KJ/(KG)(K)    1.7934   1.7345   1.7345   1.6741   1.6470   1.6271   1.6112   1.5980
 CONDUCTIVITY      0.9240   0.7901   0.7901   0.6591   0.6028   0.5622   0.5303   0.5043
 PRANDTL NUMBER    0.8448   0.8602   0.8602   0.8778   0.8862   0.8925   0.8975   0.9016

 PERFORMANCE PARAMETERS

 Ae/At                      1.0000   1.0000   1.2000   1.4000   1.6000   1.8000   2.0000
 CSTAR, M/SEC                933.2    933.2    933.2    933.2    933.2    933.2    933.2
 CF                         0.7021   0.7021   0.9875   1.0878   1.1551   1.2055   1.2456
 Ivac, M/SEC                1168.2   1168.2   1235.9   1280.2   1313.6   1340.1   1361.9
 Isp, M/SEC                  655.2    655.2    921.5   1015.1   1078.0   1125.1   1162.4


 MOLE FRACTIONS

 H2O              0.71011  0.71011  0.71011  0.71011  0.71011  0.71011  0.71011  0.71011
 *O2              0.28989  0.28989  0.28989  0.28989  0.28989  0.28989  0.28989  0.28989

  * THERMODYNAMIC PROPERTIES FITTED TO 20000.K

[...]
 CF                         0.7017   0.7017   0.9870   1.0874   1.1547   1.2052   1.2453
 Ivac, M/SEC                1176.4   1176.4   1244.7   1289.4   1323.0   1349.8   1371.8
 Isp, M/SEC                  659.6    659.6    927.8   1022.1   1085.4   1132.9   1170.5


 MOLE FRACTIONS

 H2O              0.70757  0.70757  0.70757  0.70757  0.70757  0.70757  0.70757  0.70757
 *O2              0.29243  0.29243  0.29243  0.29243  0.29243  0.29243  0.29243  0.29243

  * THERMODYNAMIC PROPERTIES FITTED TO 20000.K

    PRODUCTS WHICH WERE CONSIDERED BUT WHOSE MOLE FRACTIONS
    WERE LESS THAN 5.000000E-06 FOR ALL ASSIGNED CONDITIONS

 *H              HO2             *H2             H2O2            *O             
 *OH             O3              H2O(cr)         H2O(L)         

 NOTE. WEIGHT FRACTION OF FUEL IN TOTAL FUELS AND OF OXIDANT IN TOTAL OXIDANTS





           THEORETICAL ROCKET PERFORMANCE ASSUMING FROZEN COMPOSITION

 Pin =    30.0 PSIA
 CASE =                

             REACTANT                    WT FRACTION      ENERGY      TEMP
                                          (SEE NOTE)     KJ/KG-MOL      K  
 FUEL        H2O(L)                       1.0000000   -285841.390    298.000
 OXIDANT     H2O2(L)                      1.0000000   -187793.400    298.000

 O/F=    9.00000  %FUEL= 10.000000  R,EQ.RATIO= 0.547468  PHI,EQ.RATIO= 0.000000

                 CHAMBER   THROAT     EXIT     EXIT     EXIT     EXIT     EXIT     EXIT
 Pinf/P            1.0000   1.8187   1.8187   3.5595   4.9230   6.3293   7.8011   9.3421
 P, BAR            2.0684   1.1373   1.1373  0.58109  0.42016  0.32680  0.26514  0.22141
 T, K             1029.36   906.30   906.30   781.64   726.37   685.68   653.22   626.23
 RHO, KG/CU M    5.3422-1 3.3362-1 3.3362-1 1.9765-1 1.5378-1 1.2671-1 1.0791-1 9.3995-2
 H, KJ/KG        -6555.52 -6773.05 -6773.05 -6985.92 -7077.86 -7144.58 -7197.22 -7240.59
 U, KJ/KG        -6942.71 -7113.95 -7113.95 -7279.93 -7351.08 -7402.49 -7442.92 -7476.14
 G, KJ/KG        -17547.2 -16450.7 -16450.7 -15332.4 -14834.1 -14466.4 -14172.4 -13927.6
 S, KJ/(KG)(K)    10.6782  10.6782  10.6782  10.6782  10.6782  10.6782  10.6782  10.6782

 M, (1/n)          22.105   22.105   22.105   22.105   22.105   22.105   22.105   22.105
 Cp, KJ/(KG)(K)    1.7971   1.7380   1.7380   1.6771   1.6498   1.6297   1.6136   1.6002
 GAMMAs            1.2647   1.2762   1.2762   1.2891   1.2953   1.3001   1.3040   1.3073
 SON VEL,M/SEC      699.8    659.6    659.6    615.6    594.9    579.1    566.0    554.9
 MACH NUMBER        0.000    1.000    1.000    1.507    1.718    1.874    2.001    2.109

 TRANSPORT PROPERTIES (GASES ONLY)
   CONDUCTIVITY IN UNITS OF MILLIWATTS/(CM)(K)

 VISC,MILLIPOISE  0.44106  0.39742  0.39742  0.35092  0.32951  0.31342  0.30039  0.28942

  WITH FROZEN REACTIONS

 Cp, KJ/(KG)(K)    1.7971   1.7380   1.7380   1.6771   1.6498   1.6297   1.6136   1.6002
 CONDUCTIVITY      0.9408   0.8051   0.8051   0.6723   0.6151   0.5738   0.5414   0.5149
 PRANDTL NUMBER    0.8425   0.8579   0.8579   0.8755   0.8838   0.8901   0.8952   0.8994

 PERFORMANCE PARAMETERS

 Ae/At                      1.0000   1.0000   1.2000   1.4000   1.6000   1.8000   2.0000
 CSTAR, M/SEC                940.0    940.0    940.0    940.0    940.0    940.0    940.0
 CF                         0.7017   0.7017   0.9870   1.0874   1.1547   1.2052   1.2453
 Ivac, M/SEC                1176.4   1176.4   1244.7   1289.4   1323.0   1349.8   1371.8
 Isp, M/SEC                  659.6    659.6    927.8   1022.1   1085.4   1132.9   1170.5

 MOLE FRACTIONS

 H2O             0.70757   *O2             0.29243

  * THERMODYNAMIC PROPERTIES FITTED TO 20000.K

    PRODUCTS WHICH WERE CONSIDERED BUT WHOSE MOLE FRACTIONS
    WERE LESS THAN 5.000000E-06 FOR ALL ASSIGNED CONDITIONS

 *H              HO2             *H2             H2O2            *O             
 *OH             O3              H2O(cr)         H2O(L)         

 NOTE. WEIGHT FRACTION OF FUEL IN TOTAL FUELS AND OF OXIDANT IN TOTAL OXIDANTS






 POINT ITN      T            H           O 
   1    1    1029.358     -19.556     -13.430
 Pinf/Pt = 1.810970
   2    3     907.138     -21.499     -13.558
 Pinf/Pt = 1.818661
   2    2     906.307     -21.514     -13.559
 Pinf/Pt = 1.818713
   2    1     906.301     -21.514     -13.559
   3    1     906.301     -21.514     -13.559
   4    3     790.001     -23.924     -13.701
   4    2     781.489     -24.128     -13.712
   4    2     781.638     -24.125     -13.712
   5    3     735.136     -25.325     -13.778
   5    2     726.279     -25.571     -13.791
   5    2     726.368     -25.568     -13.791
   6    3     692.557     -26.565     -13.843
   6    2     685.644     -26.781     -13.854
   6    1     685.682     -26.780     -13.854
   7    3     657.457     -27.708     -13.901
   7    2     653.210     -27.854     -13.909
   7    1     653.221     -27.854     -13.908
   8    3     624.454     -28.899     -13.960
   8    2     626.230     -28.832     -13.957





              THEORETICAL ROCKET PERFORMANCE ASSUMING EQUILIBRIUM

           COMPOSITION DURING EXPANSION FROM INFINITE AREA COMBUSTOR

 Pin =    40.0 PSIA
 CASE =                

             REACTANT                    WT FRACTION      ENERGY      TEMP
                                          (SEE NOTE)     KJ/KG-MOL      K  
 FUEL        H2O(L)                       1.0000000   -285841.390    298.000
 OXIDANT     H2O2(L)                      1.0000000   -187793.400    298.000

 O/F=    9.00000  %FUEL= 10.000000  R,EQ.RATIO= 0.547468  PHI,EQ.RATIO= 0.000000

                 CHAMBER   THROAT     EXIT     EXIT     EXIT     EXIT     EXIT     EXIT
 Pinf/P            1.0000   1.8187   1.8187   3.5595   4.9230   6.3293   7.8011   9.3421
 P, BAR            2.7579   1.5164   1.5164  0.77479  0.56021  0.43573  0.35353  0.29521
 T, K             1029.36   906.30   906.30   781.64   726.37   685.68   653.22   626.23
 RHO, KG/CU M    7.1229-1 4.4482-1 4.4482-1 2.6353-1 2.0504-1 1.6894-1 1.4388-1 1.2533-1
 H, KJ/KG        -6555.52 -6773.05 -6773.05 -6985.92 -7077.86 -7144.58 -7197.22 -7240.59
 U, KJ/KG        -6942.71 -7113.95 -7113.95 -7279.93 -7351.08 -7402.49 -7442.92 -7476.14
 G, KJ/KG        -17435.8 -16352.6 -16352.6 -15247.8 -14755.6 -14392.2 -14101.8 -13859.8
 S, KJ/(KG)(K)    10.5700  10.5700  10.5700  10.5700  10.5700  10.5700  10.5700  10.5700

 M, (1/n)          22.105   22.105   22.105   22.105   22.105   22.105   22.105   22.105
 (dLV/dLP)t      -1.00000 -1.00000 -1.00000 -1.00000 -1.00000 -1.00000 -1.00000 -1.00000
 (dLV/dLT)p        1.0000   1.0000   1.0000   1.0000   1.0000   1.0000   1.0000   1.0000
 Cp, KJ/(KG)(K)    1.7972   1.7380   1.7380   1.6771   1.6498   1.6297   1.6136   1.6002
 GAMMAs            1.2647   1.2762   1.2762   1.2891   1.2953   1.3001   1.3040   1.3073
 SON VEL,M/SEC      699.8    659.6    659.6    615.6    594.9    579.1    566.0    554.9
 MACH NUMBER        0.000    1.000    1.000    1.507    1.718    1.874    2.001    2.109

 TRANSPORT PROPERTIES (GASES ONLY)
   CONDUCTIVITY IN UNITS OF MILLIWATTS/(CM)(K)

 VISC,MILLIPOISE  0.44106  0.39742  0.39742  0.35092  0.32951  0.31342  0.30039  0.28942

  WITH EQUILIBRIUM REACTIONS

 Cp, KJ/(KG)(K)    1.7972   1.7380   1.7380   1.6771   1.6498   1.6297   1.6136   1.6002
 CONDUCTIVITY      0.9408   0.8052   0.8052   0.6723   0.6151   0.5738   0.5414   0.5149
 PRANDTL NUMBER    0.8425   0.8579   0.8579   0.8755   0.8838   0.8901   0.8952   0.8994

  WITH FROZEN REACTIONS

 Cp, KJ/(KG)(K)    1.7971   1.7380   1.7380   1.6771   1.6498   1.6297   1.6136   1.6002
 CONDUCTIVITY      0.9408   0.8051   0.8051   0.6723   0.6151   0.5738   0.5414   0.5149
 PRANDTL NUMBER    0.8425   0.8579   0.8579   0.8755   0.8838   0.8901   0.8952   0.8994

 PERFORMANCE PARAMETERS

 Ae/At                      1.0000   1.0000   1.2000   1.4000   1.6000   1.8000   2.0000
 CSTAR, M/SEC                940.0    940.0    940.0    940.0    940.0    940.0    940.0
 CF                         0.7017   0.7017   0.9870   1.0874   1.1547   1.2052   1.2453
 Ivac, M/SEC                1176.4   1176.4   1244.7   1289.4   1323.0   1349.8   1371.8
 Isp, M/SEC                  659.6    659.6    927.8   1022.1   1085.4   1132.9   1170.5


 MOLE FRACTIONS

 H2O              0.70757  0.70757  0.70757  0.70757  0.70757  0.70757  0.70757  0.70757
 *O2              0.29243  0.29243  0.29243  0.29243  0.29243  0.29243  0.29243  0.29243

  * THERMODYNAMIC PROPERTIES FITTED TO 20000.K

    PRODUCTS WHICH WERE CONSIDERED BUT WHOSE MOLE FRACTIONS
    WERE LESS THAN 5.000000E-06 FOR ALL ASSIGNED CONDITIONS

 *H              HO2             *H2             H2O2            *O             
 *OH             O3              H2O(cr)         H2O(L)         

 NOTE. WEIGHT FRACTION OF FUEL IN TOTAL FUELS AND OF OXIDANT IN TOTAL OXIDANTS





           THEORETICAL ROCKET PERFORMANCE ASSUMING FROZEN COMPOSITION

 Pin =    40.0 PSIA
 CASE =                

             REACTANT                    WT FRACTION      ENERGY      TEMP
                                          (SEE NOTE)     KJ/KG-MOL      K  
 FUEL        H2O(L)                       1.0000000   -285841.390    298.000
 OXIDANT     H2O2(L)                      1.0000000   -187793.400    298.000

 O/F=    9.00000  %FUEL= 10.000000  R,EQ.RATIO= 0.547468  PHI,EQ.RATIO= 0.000000

                 CHAMBER   THROAT     EXIT     EXIT     EXIT     EXIT     EXIT     EXIT
 Pinf/P            1.0000   1.8187   1.8187   3.5595   4.9230   6.3293   7.8011   9.3421
 P, BAR            2.7579   1.5164   1.5164  0.77479  0.56021  0.43573  0.35353  0.29521
 T, K             1029.36   906.30   906.30   781.64   726.37   685.68   653.22   626.23
 RHO, KG/CU M    7.1229-1 4.4482-1 4.4482-1 2.6353-1 2.0504-1 1.6894-1 1.4388-1 1.2533-1
 H, KJ/KG        -6555.52 -6773.05 -6773.05 -6985.92 -7077.86 -7144.58 -7197.22 -7240.59
 U, KJ/KG        -6942.71 -7113.95 -7113.95 -7279.93 -7351.08 -7402.49 -7442.92 -7476.14
 G, KJ/KG        -17435.8 -16352.6 -16352.6 -15247.8 -14755.5 -14392.2 -14101.7 -13859.8
 S, KJ/(KG)(K)    10.5700  10.5700  10.5700  10.5700  10.5700  10.5700  10.5700  10.5700

 M, (1/n)          22.105   22.105   22.105   22.105   22.105   22.105   22.105   22.105
 Cp, KJ/(KG)(K)    1.7971   1.7380   1.7380   1.6771   1.6498   1.6297   1.6136   1.6002
 GAMMAs            1.2647   1.2762   1.2762   1.2891   1.2953   1.3001   1.3040   1.3073
 SON VEL,M/SEC      699.8    659.6    659.6    615.6    594.9    579.1    566.0    554.9
 MACH NUMBER        0.000    1.000    1.000    1.507    1.718    1.874    2.001    2.109

 TRANSPORT PROPERTIES (GASES ONLY)
   CONDUCTIVITY IN UNITS OF MILLIWATTS/(CM)(K)

 VISC,MILLIPOISE  0.44106  0.39742  0.39742  0.35092  0.32951  0.31342  0.30039  0.28942

  WITH FROZEN REACTIONS

 Cp, KJ/(KG)(K)    1.7971   1.7380   1.7380   1.6771   1.6498   1.6297   1.6136   1.6002
 CONDUCTIVITY      0.9408   0.8051   0.8051   0.6723   0.6151   0.5738   0.5414   0.5149
 PRANDTL NUMBER    0.8425   0.8579   0.8579   0.8755   0.8838   0.8901   0.8952   0.8994

 PERFORMANCE PARAMETERS

 Ae/At                      1.0000   1.0000   1.2000   1.4000   1.6000   1.8000   2.0000
 CSTAR, M/SEC                940.0    940.0    940.0    940.0    940.0    940.0    940.0
 CF                         0.7017   0.7017   0.9870   1.0874   1.1547   1.2052   1.2453
 Ivac, M/SEC                1176.4   1176.4   1244.7   1289.4   1323.0   1349.8   1371.8
 Isp, M/SEC                  659.6    659.6    927.8   1022.1   1085.4   1132.9   1170.5

 MOLE FRACTIONS

 H2O             0.70757   *O2             0.29243

  * THERMODYNAMIC PROPERTIES FITTED TO 20000.K

    PRODUCTS WHICH WERE CONSIDERED BUT WHOSE MOLE FRACTIONS
    WERE LESS THAN 5.000000E-06 FOR ALL ASSIGNED CONDITIONS

 *H              HO2             *H2             H2O2            *O             
 *OH             O3              H2O(cr)         H2O(L)         

 NOTE. WEIGHT FRACTION OF FUEL IN TOTAL FUELS AND OF OXIDANT IN TOTAL OXIDANTS






 POINT ITN      T            H           O 
   1    1    1029.358     -19.500     -13.319
 Pinf/Pt = 1.810971
   2    3     907.138     -21.443     -13.446
 Pinf/Pt = 1.818661
   2    2     906.307     -21.458     -13.447
 Pinf/Pt = 1.818713
   2    1     906.301     -21.458     -13.447
   3    1     906.301     -21.458     -13.447
   4    3     790.001     -23.868     -13.589
   4    2     781.489     -24.073     -13.601
   4    2     781.638     -24.069     -13.601
   5    3     735.136     -25.269     -13.666
   5    2     726.279     -25.515     -13.679
   5    2     726.368     -25.513     -13.679
   6    3     692.557     -26.509     -13.731
   6    2     685.643     -26.725     -13.743
   6    1     685.682     -26.724     -13.742
   7    3     657.457     -27.652     -13.790
   7    2     653.210     -27.799     -13.797
   7    1     653.221     -27.798     -13.797
   8    3     624.454     -28.844     -13.849
   8    2     626.230     -28.776     -13.845





              THEORETICAL ROCKET PERFORMANCE ASSUMING EQUILIBRIUM

           COMPOSITION DURING EXPANSION FROM INFINITE AREA COMBUSTOR

 Pin =    50.0 PSIA
 CASE =                

             REACTANT                    WT FRACTION      ENERGY      TEMP
                                          (SEE NOTE)     KJ/KG-MOL      K  
 FUEL        H2O(L)                       1.0000000   -285841.390    298.000
 OXIDANT     H2O2(L)                      1.0000000   -187793.400    298.000

 O/F=    9.00000  %FUEL= 10.000000  R,EQ.RATIO= 0.547468  PHI,EQ.RATIO= 0.000000

                 CHAMBER   THROAT     EXIT     EXIT     EXIT     EXIT     EXIT     EXIT
 Pinf/P            1.0000   1.8187   1.8187   3.5595   4.9230   6.3293   7.8011   9.3421
 P, BAR            3.4474   1.8955   1.8955  0.96849  0.70026  0.54467  0.44191  0.36901
 T, K             1029.36   906.30   906.30   781.64   726.37   685.68   653.22   626.23
 RHO, KG/CU M    8.9036-1 5.5603-1 5.5603-1 3.2941-1 2.5630-1 2.1118-1 1.7985-1 1.5666-1
 H, KJ/KG        -6555.52 -6773.05 -6773.05 -6985.92 -7077.86 -7144.58 -7197.22 -7240.59
 U, KJ/KG        -6942.71 -7113.95 -7113.95 -7279.93 -7351.08 -7402.49 -7442.92 -7476.14
 G, KJ/KG        -17349.4 -16276.6 -16276.6 -15182.2 -14694.6 -14334.7 -14046.9 -13807.3
 S, KJ/(KG)(K)    10.4861  10.4861  10.4861  10.4861  10.4861  10.4861  10.4861  10.4861

 M, (1/n)          22.105   22.105   22.105   22.105   22.105   22.105   22.105   22.105
 (dLV/dLP)t      -1.00000 -1.00000 -1.00000 -1.00000 -1.00000 -1.00000 -1.00000 -1.00000
 (dLV/dLT)p        1.0000   1.0000   1.0000   1.0000   1.0000   1.0000   1.0000   1.0000
 Cp, KJ/(KG)(K)    1.7972   1.7380   1.7380   1.6771   1.6498   1.6297   1.6136   1.6002
 GAMMAs            1.2647   1.2762   1.2762   1.2891   1.2953   1.3001   1.3040   1.3073
 SON VEL,M/SEC      699.8    659.6    659.6    615.6    594.9    579.1    566.0    554.9
 MACH NUMBER        0.000    1.000    1.000    1.507    1.718    1.874    2.001    2.109

 TRANSPORT PROPERTIES (GASES ONLY)
   CONDUCTIVITY IN UNITS OF MILLIWATTS/(CM)(K)

 VISC,MILLIPOISE  0.44106  0.39742  0.39742  0.35092  0.32951  0.31342  0.30039  0.28942

  WITH EQUILIBRIUM REACTIONS

 Cp, KJ/(KG)(K)    1.7972   1.7380   1.7380   1.6771   1.6498   1.6297   1.6136   1.6002
 CONDUCTIVITY      0.9408   0.8052   0.8052   0.6723   0.6151   0.5738   0.5414   0.5149
 PRANDTL NUMBER    0.8425   0.8579   0.8579   0.8755   0.8838   0.8901   0.8952   0.8994

  WITH FROZEN REACTIONS

 Cp, KJ/(KG)(K)    1.7971   1.7380   1.7380   1.6771   1.6498   1.6297   1.6136   1.6002
 CONDUCTIVITY      0.9408   0.8051   0.8051   0.6723   0.6151   0.5738   0.5414   0.5149
 PRANDTL NUMBER    0.8425   0.8579   0.8579   0.8755   0.8838   0.8901   0.8952   0.8994

 PERFORMANCE PARAMETERS

 Ae/At                      1.0000   1.0000   1.2000   1.4000   1.6000   1.8000   2.0000
 CSTAR, M/SEC                940.0    940.0    940.0    940.0    940.0    940.0    940.0
 CF                         0.7017   0.7017   0.9870   1.0874   1.1547   1.2052   1.2453
 Ivac, M/SEC                1176.4   1176.4   1244.7   1289.4   1323.0   1349.8   1371.8
 Isp, M/SEC                  659.6    659.6    927.8   1022.1   1085.4   1132.9   1170.5


 MOLE FRACTIONS

 H2O              0.70757  0.70757  0.70757  0.70757  0.70757  0.70757  0.70757  0.70757
 *O2              0.29243  0.29243  0.29243  0.29243  0.29243  0.29243  0.29243  0.29243

  * THERMODYNAMIC PROPERTIES FITTED TO 20000.K

    PRODUCTS WHICH WERE CONSIDERED BUT WHOSE MOLE FRACTIONS
    WERE LESS THAN 5.000000E-06 FOR ALL ASSIGNED CONDITIONS

 *H              HO2             *H2             H2O2            *O             
 *OH             O3              H2O(cr)         H2O(L)         

 NOTE. WEIGHT FRACTION OF FUEL IN TOTAL FUELS AND OF OXIDANT IN TOTAL OXIDANTS





           THEORETICAL ROCKET PERFORMANCE ASSUMING FROZEN COMPOSITION

 Pin =    50.0 PSIA
 CASE =                

             REACTANT                    WT FRACTION      ENERGY      TEMP
                                          (SEE NOTE)     KJ/KG-MOL      K  
 FUEL        H2O(L)                       1.0000000   -285841.390    298.000
 OXIDANT     H2O2(L)                      1.0000000   -187793.400    298.000

 O/F=    9.00000  %FUEL= 10.000000  R,EQ.RATIO= 0.547468  PHI,EQ.RATIO= 0.000000

                 CHAMBER   THROAT     EXIT     EXIT     EXIT     EXIT     EXIT     EXIT
 Pinf/P            1.0000   1.8187   1.8187   3.5595   4.9230   6.3293   7.8011   9.3421
 P, BAR            3.4474   1.8955   1.8955  0.96849  0.70026  0.54467  0.44191  0.36901
 T, K             1029.36   906.30   906.30   781.64   726.37   685.68   653.22   626.23
 RHO, KG/CU M    8.9036-1 5.5603-1 5.5603-1 3.2941-1 2.5630-1 2.1118-1 1.7985-1 1.5666-1
 H, KJ/KG        -6555.52 -6773.05 -6773.05 -6985.92 -7077.86 -7144.58 -7197.22 -7240.59
 U, KJ/KG        -6942.71 -7113.95 -7113.95 -7279.93 -7351.08 -7402.49 -7442.92 -7476.14
 G, KJ/KG        -17349.4 -16276.5 -16276.5 -15182.2 -14694.6 -14334.7 -14046.9 -13807.3
 S, KJ/(KG)(K)    10.4861  10.4861  10.4861  10.4861  10.4861  10.4861  10.4861  10.4861

 M, (1/n)          22.105   22.105   22.105   22.105   22.105   22.105   22.105   22.105
 Cp, KJ/(KG)(K)    1.7971   1.7380   1.7380   1.6771   1.6498   1.6297   1.6136   1.6002
 GAMMAs            1.2647   1.2762   1.2762   1.2891   1.2953   1.3001   1.3040   1.3073
 SON VEL,M/SEC      699.8    659.6    659.6    615.6    594.9    579.1    566.0    554.9
 MACH NUMBER        0.000    1.000    1.000    1.507    1.718    1.874    2.001    2.109

 TRANSPORT PROPERTIES (GASES ONLY)
   CONDUCTIVITY IN UNITS OF MILLIWATTS/(CM)(K)

 VISC,MILLIPOISE  0.44106  0.39742  0.39742  0.35092  0.32951  0.31342  0.30039  0.28942

  WITH FROZEN REACTIONS

 Cp, KJ/(KG)(K)    1.7971   1.7380   1.7380   1.6771   1.6498   1.6297   1.6136   1.6002
 CONDUCTIVITY      0.9408   0.8051   0.8051   0.6723   0.6151   0.5738   0.5414   0.5149
 PRANDTL NUMBER    0.8425   0.8579   0.8579   0.8755   0.8838   0.8901   0.8952   0.8994

 PERFORMANCE PARAMETERS

 Ae/At                      1.0000   1.0000   1.2000   1.4000   1.6000   1.8000   2.0000
 CSTAR, M/SEC                940.0    940.0    940.0    940.0    940.0    940.0    940.0
 CF                         0.7017   0.7017   0.9870   1.0874   1.1547   1.2052   1.2453
 Ivac, M/SEC                1176.4   1176.4   1244.7   1289.4   1323.0   1349.8   1371.8
 Isp, M/SEC                  659.6    659.6    927.8   1022.1   1085.4   1132.9   1170.5

 MOLE FRACTIONS

 H2O             0.70757   *O2             0.29243

  * THERMODYNAMIC PROPERTIES FITTED TO 20000.K

    PRODUCTS WHICH WERE CONSIDERED BUT WHOSE MOLE FRACTIONS
    WERE LESS THAN 5.000000E-06 FOR ALL ASSIGNED CONDITIONS

 *H              HO2             *H2             H2O2            *O             
 *OH             O3              H2O(cr)         H2O(L)         

 NOTE. WEIGHT FRACTION OF FUEL IN TOTAL FUELS AND OF OXIDANT IN TOTAL OXIDANTS



