
 *******************************************************************************

         NASA-GLENN CHEMICAL EQUILIBRIUM PROGRAM CEA2, MAY 21, 2004
                   BY  BONNIE MCBRIDE AND SANFORD GORDON
      REFS: NASA RP-1311, PART I, 1994 AND NASA RP-1311, PART II, 1996

 *******************************************************************************



 problem rocket eq fr
     p(psi) = 20, 30, 40, 50
     o/f = 9.2, 9.4, 9.6, 9.8, 10
     sup = 1, 1.2, 1.4, 1.6, 1.8, 2
 reac
     fuel = H2O(L) t(K) = 298.000
     ox = H2O2(L) t(K) = 298.000
 outp trans
 end

 OPTIONS: TP=F  HP=F  SP=F  TV=F  UV=F  SV=F  DETN=F  SHOCK=F  REFL=F  INCD=F
 RKT=T  FROZ=T  EQL=T  IONS=F  SIUNIT=T  DEBUGF=F  SHKDBG=F  DETDBG=F  TRNSPT=T

 TRACE= 0.00E+00  S/R= 0.000000E+00  H/R= 0.000000E+00  U/R= 0.000000E+00

 Pc,BAR =     1.378946     2.068419     2.757892     3.447365

 Pc/P =

 SUBSONIC AREA RATIOS =

 SUPERSONIC AREA RATIOS =     1.0000     1.2000     1.4000     1.6000     1.8000
     2.0000

 NFZ=  1  Mdot/Ac= 0.000000E+00  Ac/At= 0.000000E+00

 WARNING!!  AMOUNT MISSING FOR REACTANT  1.
 PROGRAM SETS WEIGHT PERCENT = 100. (REACT)

 WARNING!!  AMOUNT MISSING FOR REACTANT  2.
 PROGRAM SETS WEIGHT PERCENT = 100. (REACT)

    REACTANT          WT.FRAC   (ENERGY/R),K   TEMP,K  DENSITY
        EXPLODED FORMULA
 F: H2O(L)           1.000000  -0.343786E+05   298.00  0.0000
          H  2.00000  O  1.00000
 O: H2O2(L)          1.000000  -0.225862E+05   298.00  0.0000
          H  2.00000  O  2.00000

  SPECIES BEING CONSIDERED IN THIS SYSTEM
 (CONDENSED PHASE MAY HAVE NAME LISTED SEVERAL TIMES)
  LAST thermo.inp UPDATE:    9/09/04

  g 6/97  *H               g 4/02  HO2              tpis78  *H2            
  g 8/89  H2O              g 6/99  H2O2             g 5/97  *O             
  g 4/02  *OH              tpis89  *O2              g 8/01  O3             
  g11/99  H2O(cr)          g 8/01  H2O(L)           g 8/01  H2O(L)         

 SPECIES WITH TRANSPORT PROPERTIES

        PURE SPECIES

  H                 H2                H2O               O               
  OH                O2              

     BINARY INTERACTIONS

     H               H2              
     H               O               
     H2              H2O             
     H2              O2              
     H2O             O2              
     O               O2              


 O/F =   9.200000

                       EFFECTIVE FUEL     EFFECTIVE OXIDANT        MIXTURE
 ENTHALPY                  h(2)/R              h(1)/R               h0/R
 (KG-MOL)(K)/KG       -0.19083035E+04     -0.66401406E+03     -0.78600322E+03

 KG-FORM.WT./KG             bi(2)               bi(1)               b0i
  *H                   0.11101687E+00      0.58798142E-01      0.63917626E-01
  *O                   0.55508435E-01      0.58798142E-01      0.58475622E-01

 POINT ITN      T            H           O 
   1   10    1034.151     -19.669     -13.782
 Pinf/Pt = 1.810739
   2    3     911.517     -21.600     -13.909
 Pinf/Pt = 1.818424
   2    2     910.683     -21.615     -13.910
 Pinf/Pt = 1.818476
   2    1     910.677     -21.615     -13.910
   3    1     910.677     -21.615     -13.910
   4    3     793.933     -24.011     -14.052
   4    2     785.414     -24.214     -14.063
   4    2     785.562     -24.210     -14.063
   5    3     738.849     -25.404     -14.129
   5    2     729.993     -25.647     -14.142
   5    2     730.081     -25.645     -14.141
   6    3     696.096     -26.636     -14.194
   6    2     689.198     -26.849     -14.205
   6    1     689.235     -26.848     -14.205
   7    3     660.849     -27.772     -14.252
   7    2     656.633     -27.916     -14.259
   7    1     656.644     -27.916     -14.259
   8    3     627.745     -28.955     -14.310
   8    2     629.542     -28.888     -14.307





              THEORETICAL ROCKET PERFORMANCE ASSUMING EQUILIBRIUM

           COMPOSITION DURING EXPANSION FROM INFINITE AREA COMBUSTOR

 Pin =    20.0 PSIA
 CASE =                

             REACTANT                    WT FRACTION      ENERGY      TEMP
                                          (SEE NOTE)     KJ/KG-MOL      K  
 FUEL        H2O(L)                       1.0000000   -285841.390    298.000
 OXIDANT     H2O2(L)                      1.0000000   -187793.400    298.000

 O/F=    9.20000  %FUEL=  9.803922  R,EQ.RATIO= 0.546532  PHI,EQ.RATIO= 0.000000

                 CHAMBER   THROAT     EXIT     EXIT     EXIT     EXIT     EXIT     EXIT
 Pinf/P            1.0000   1.8185   1.8185   3.5585   4.9213   6.3268   7.7976   9.3376
 P, BAR            1.3789  0.75830  0.75830  0.38750  0.28020  0.21795  0.17684  0.14768
 T, K             1034.15   910.68   910.68   785.56   730.08   689.24   656.64   629.54
 RHO, KG/CU M    3.5467-1 2.2148-1 2.2148-1 1.3121-1 1.0208-1 8.4112-2 7.1633-2 6.2395-2
 H, KJ/KG        -6535.23 -6753.64 -6753.64 -6967.41 -7059.75 -7126.76 -7179.64 -7223.21
 U, KJ/KG        -6924.03 -7096.01 -7096.01 -7262.75 -7334.23 -7385.88 -7426.51 -7459.89
 G, KJ/KG        -17739.6 -16620.2 -16620.2 -15478.5 -14969.7 -14594.2 -14293.9 -14043.9
 S, KJ/(KG)(K)    10.8343  10.8343  10.8343  10.8343  10.8343  10.8343  10.8343  10.8343

 M, (1/n)          22.115   22.115   22.115   22.115   22.115   22.115   22.115   22.115
 (dLV/dLP)t      -1.00000 -1.00000 -1.00000 -1.00000 -1.00000 -1.00000 -1.00000 -1.00000
 (dLV/dLT)p        1.0000   1.0000   1.0000   1.0000   1.0000   1.0000   1.0000   1.0000
 Cp, KJ/(KG)(K)    1.7984   1.7390   1.7390   1.6780   1.6507   1.6305   1.6143   1.6009
 GAMMAs            1.2643   1.2758   1.2758   1.2887   1.2949   1.2997   1.3036   1.3069
 SON VEL,M/SEC      701.1    660.9    660.9    616.9    596.2    580.3    567.3    556.2
 MACH NUMBER        0.000    1.000    1.000    1.507    1.718    1.874    2.001    2.109

 TRANSPORT PROPERTIES (GASES ONLY)
   CONDUCTIVITY IN UNITS OF MILLIWATTS/(CM)(K)

 VISC,MILLIPOISE  0.44283  0.39913  0.39913  0.35255  0.33110  0.31498  0.30191  0.29091

  WITH EQUILIBRIUM REACTIONS

 Cp, KJ/(KG)(K)    1.7984   1.7390   1.7390   1.6780   1.6507   1.6305   1.6143   1.6009
 CONDUCTIVITY      0.9460   0.8098   0.8098   0.6763   0.6189   0.5774   0.5449   0.5182
 PRANDTL NUMBER    0.8418   0.8571   0.8571   0.8747   0.8831   0.8894   0.8945   0.8988

  WITH FROZEN REACTIONS

 Cp, KJ/(KG)(K)    1.7983   1.7390   1.7390   1.6780   1.6507   1.6305   1.6143   1.6009
 CONDUCTIVITY      0.9459   0.8098   0.8098   0.6763   0.6189   0.5774   0.5449   0.5182
 PRANDTL NUMBER    0.8419   0.8572   0.8572   0.8747   0.8831   0.8894   0.8945   0.8988

 PERFORMANCE PARAMETERS

 Ae/At                      1.0000   1.0000   1.2000   1.4000   1.6000   1.8000   2.0000
 CSTAR, M/SEC                942.0    942.0    942.0    942.0    942.0    942.0    942.0
 CF                         0.7016   0.7016   0.9869   1.0872   1.1546   1.2051   1.2452
 Ivac, M/SEC                1179.0   1179.0   1247.4   1292.2   1325.9   1352.7   1374.8
 Isp, M/SEC                  660.9    660.9    929.7   1024.2   1087.7   1135.3   1173.0


 MOLE FRACTIONS

 H2O              0.70678  0.70678  0.70678  0.70678  0.70678  0.70678  0.70678  0.70678
 *O2              0.29322  0.29322  0.29322  0.29322  0.29322  0.29322  0.29322  0.29322

  * THERMODYNAMIC PROPERTIES FITTED TO 20000.K

    PRODUCTS WHICH WERE CONSIDERED BUT WHOSE MOLE FRACTIONS
    WERE LESS THAN 5.000000E-06 FOR ALL ASSIGNED CONDITIONS

 *H              HO2             *H2             H2O2            *O             
 *OH             O3              H2O(cr)         H2O(L)         

 NOTE. WEIGHT FRACTION OF FUEL IN TOTAL FUELS AND OF OXIDANT IN TOTAL OXIDANTS





           THEORETICAL ROCKET PERFORMANCE ASSUMING FROZEN COMPOSITION

 Pin =    20.0 PSIA
 CASE =                

             REACTANT                    WT FRACTION      ENERGY      TEMP
                                          (SEE NOTE)     KJ/KG-MOL      K  
 FUEL        H2O(L)                       1.0000000   -285841.390    298.000
 OXIDANT     H2O2(L)                      1.0000000   -187793.400    298.000

 O/F=    9.20000  %FUEL=  9.803922  R,EQ.RATIO= 0.546532  PHI,EQ.RATIO= 0.000000

                 CHAMBER   THROAT     EXIT     EXIT     EXIT     EXIT     EXIT     EXIT
 Pinf/P            1.0000   1.8185   1.8185   3.5585   4.9213   6.3268   7.7976   9.3376
 P, BAR            1.3789  0.75830  0.75830  0.38750  0.28020  0.21795  0.17684  0.14768
 T, K             1034.15   910.67   910.67   785.56   730.08   689.23   656.64   629.54
 RHO, KG/CU M    3.5467-1 2.2148-1 2.2148-1 1.3121-1 1.0208-1 8.4112-2 7.1633-2 6.2395-2
 H, KJ/KG        -6535.23 -6753.64 -6753.64 -6967.41 -7059.75 -7126.76 -7179.63 -7223.20
 U, KJ/KG        -6924.03 -7096.01 -7096.01 -7262.74 -7334.23 -7385.88 -7426.51 -7459.89
 G, KJ/KG        -17739.6 -16620.2 -16620.2 -15478.4 -14969.7 -14594.1 -14293.9 -14043.9
 S, KJ/(KG)(K)    10.8343  10.8343  10.8343  10.8343  10.8343  10.8343  10.8343  10.8343

 M, (1/n)          22.115   22.115   22.115   22.115   22.115   22.115   22.115   22.115
 Cp, KJ/(KG)(K)    1.7983   1.7390   1.7390   1.6780   1.6507   1.6305   1.6143   1.6009
 GAMMAs            1.2643   1.2758   1.2758   1.2887   1.2949   1.2997   1.3036   1.3069
 SON VEL,M/SEC      701.1    660.9    660.9    616.9    596.2    580.3    567.3    556.2
 MACH NUMBER        0.000    1.000    1.000    1.507    1.718    1.874    2.001    2.109

 TRANSPORT PROPERTIES (GASES ONLY)
   CONDUCTIVITY IN UNITS OF MILLIWATTS/(CM)(K)

 VISC,MILLIPOISE  0.44283  0.39913  0.39913  0.35255  0.33110  0.31498  0.30191  0.29091

  WITH FROZEN REACTIONS

 Cp, KJ/(KG)(K)    1.7983   1.7390   1.7390   1.6780   1.6507   1.6305   1.6143   1.6009
 CONDUCTIVITY      0.9459   0.8098   0.8098   0.6763   0.6189   0.5774   0.5449   0.5182
 PRANDTL NUMBER    0.8419   0.8572   0.8572   0.8747   0.8831   0.8894   0.8945   0.8988

 PERFORMANCE PARAMETERS

 Ae/At                      1.0000   1.0000   1.2000   1.4000   1.6000   1.8000   2.0000
 CSTAR, M/SEC                942.0    942.0    942.0    942.0    942.0    942.0    942.0
 CF                         0.7016   0.7016   0.9869   1.0872   1.1546   1.2051   1.2452
 Ivac, M/SEC                1178.9   1178.9   1247.4   1292.2   1325.9   1352.7   1374.8
 Isp, M/SEC                  660.9    660.9    929.7   1024.2   1087.7   1135.3   1173.0

 MOLE FRACTIONS

 H2O             0.70678   *O2             0.29322

  * THERMODYNAMIC PROPERTIES FITTED TO 20000.K

    PRODUCTS WHICH WERE CONSIDERED BUT WHOSE MOLE FRACTIONS
    WERE LESS THAN 5.000000E-06 FOR ALL ASSIGNED CONDITIONS

 *H              HO2             *H2             H2O2            *O             
 *OH             O3              H2O(cr)         H2O(L)         

 NOTE. WEIGHT FRACTION OF FUEL IN TOTAL FUELS AND OF OXIDANT IN TOTAL OXIDANTS






 POINT ITN      T            H           O 
   1    1    1034.152     -19.568     -13.579
 Pinf/Pt = 1.810739
   2    3     911.517     -21.499     -13.706
 Pinf/Pt = 1.818424
   2    2     910.683     -21.514     -13.707
 Pinf/Pt = 1.818477
   2    1     910.677     -21.514     -13.707
   3    1     910.677     -21.514     -13.707
   4    3     793.933     -23.910     -13.849
   4    2     785.414     -24.112     -13.861
   4    2     785.562     -24.109     -13.860
   5    3     738.849     -25.302     -13.926
   5    2     729.993     -25.546     -13.939
   5    2     730.081     -25.543     -13.939
   6    3     696.096     -26.535     -13.991
   6    2     689.198     -26.748     -14.002
   6    1     689.235     -26.747     -14.002
   7    3     660.849     -27.671     -14.049
   7    2     656.633     -27.815     -14.056
   7    1     656.644     -27.814     -14.056
   8    3     627.745     -28.854     -14.108
   8    2     629.542     -28.786     -14.104





              THEORETICAL ROCKET PERFORMANCE ASSUMING EQUILIBRIUM

           COMPOSITION DURING EXPANSION FROM INFINITE AREA COMBUSTOR

 Pin =    30.0 PSIA
 CASE =                

             REACTANT                    WT FRACTION      ENERGY      TEMP
                                          (SEE NOTE)     KJ/KG-MOL      K  
 FUEL        H2O(L)                       1.0000000   -285841.390    298.000
 OXIDANT     H2O2(L)                      1.0000000   -187793.400    298.000

 O/F=    9.20000  %FUEL=  9.803922  R,EQ.RATIO= 0.546532  PHI,EQ.RATIO= 0.000000

                 CHAMBER   THROAT     EXIT     EXIT     EXIT     EXIT     EXIT     EXIT
 Pinf/P            1.0000   1.8185   1.8185   3.5585   4.9213   6.3268   7.7976   9.3376
 P, BAR            2.0684   1.1374   1.1374  0.58125  0.42030  0.32693  0.26526  0.22152
 T, K             1034.15   910.68   910.68   785.56   730.08   689.24   656.64   629.54
 RHO, KG/CU M    5.3200-1 3.3222-1 3.3222-1 1.9681-1 1.5313-1 1.2617-1 1.0745-1 9.3592-2
 H, KJ/KG        -6535.23 -6753.64 -6753.64 -6967.41 -7059.75 -7126.76 -7179.64 -7223.21
 U, KJ/KG        -6924.03 -7096.01 -7096.01 -7262.75 -7334.23 -7385.88 -7426.51 -7459.89
 G, KJ/KG        -17581.9 -16481.4 -16481.4 -15358.7 -14858.4 -14489.1 -14193.8 -13947.9
 S, KJ/(KG)(K)    10.6819  10.6819  10.6819  10.6819  10.6819  10.6819  10.6819  10.6819

 M, (1/n)          22.115   22.115   22.115   22.115   22.115   22.115   22.115   22.115
 (dLV/dLP)t      -1.00000 -1.00000 -1.00000 -1.00000 -1.00000 -1.00000 -1.00000 -1.00000
 (dLV/dLT)p        1.0000   1.0000   1.0000   1.0000   1.0000   1.0000   1.0000   1.0000
 Cp, KJ/(KG)(K)    1.7984   1.7390   1.7390   1.6780   1.6507   1.6305   1.6143   1.6009
 GAMMAs            1.2643   1.2758   1.2758   1.2887   1.2949   1.2997   1.3036   1.3069
 SON VEL,M/SEC      701.1    660.9    660.9    616.9    596.2    580.3    567.3    556.2
 MACH NUMBER        0.000    1.000    1.000    1.507    1.718    1.874    2.001    2.109

 TRANSPORT PROPERTIES (GASES ONLY)
   CONDUCTIVITY IN UNITS OF MILLIWATTS/(CM)(K)

 VISC,MILLIPOISE  0.44283  0.39913  0.39913  0.35255  0.33110  0.31498  0.30191  0.29091

  WITH EQUILIBRIUM REACTIONS

 Cp, KJ/(KG)(K)    1.7984   1.7390   1.7390   1.6780   1.6507   1.6305   1.6143   1.6009
 CONDUCTIVITY      0.9460   0.8098   0.8098   0.6763   0.6189   0.5774   0.5449   0.5182
 PRANDTL NUMBER    0.8418   0.8571   0.8571   0.8747   0.8831   0.8894   0.8945   0.8988

  WITH FROZEN REACTIONS

 Cp, KJ/(KG)(K)    1.7983   1.7390   1.7390   1.6780   1.6507   1.6305   1.6143   1.6009
 CONDUCTIVITY      0.9459   0.8098   0.8098   0.6763   0.6189   0.5774   0.5449   0.5182
 PRANDTL NUMBER    0.8419   0.8572   0.8572   0.8747   0.8831   0.8894   0.8945   0.8988

 PERFORMANCE PARAMETERS

 Ae/At                      1.0000   1.0000   1.2000   1.4000   1.6000   1.8000   2.0000
 CSTAR, M/SEC                942.0    942.0    942.0    942.0    942.0    942.0    942.0
 CF                         0.7016   0.7016   0.9869   1.0872   1.1546   1.2051   1.2452
 Ivac, M/SEC                1179.0   1179.0   1247.4   1292.2   1325.9   1352.7   1374.8
 Isp, M/SEC                  660.9    660.9    929.7   1024.2   1087.7   1135.3   1173.0


 MOLE FRACTIONS

 H2O              0.70678  0.70678  0.70678  0.70678  0.70678  0.70678  0.70678  0.70678
 *O2              0.29322  0.29322  0.29322  0.29322  0.29322  0.29322  0.29322  0.29322

  * THERMODYNAMIC PROPERTIES FITTED TO 20000.K

    PRODUCTS WHICH WERE CONSIDERED BUT WHOSE MOLE FRACTIONS
    WERE LESS THAN 5.000000E-06 FOR ALL ASSIGNED CONDITIONS

 *H              HO2             *H2             H2O2            *O             
 *OH             O3              H2O(cr)         H2O(L)         

 NOTE. WEIGHT FRACTION OF FUEL IN TOTAL FUELS AND OF OXIDANT IN TOTAL OXIDANTS





           THEORETICAL ROCKET PERFORMANCE ASSUMING FROZEN COMPOSITION

 Pin =    30.0 PSIA
 CASE =                

             REACTANT                    WT FRACTION      ENERGY      TEMP
                                          (SEE NOTE)     KJ/KG-MOL      K  
 FUEL        H2O(L)                       1.0000000   -285841.390    298.000
 OXIDANT     H2O2(L)                      1.0000000   -187793.400    298.000

 O/F=    9.20000  %FUEL=  9.803922  R,EQ.RATIO= 0.546532  PHI,EQ.RATIO= 0.000000

                 CHAMBER   THROAT     EXIT     EXIT     EXIT     EXIT     EXIT     EXIT
 Pinf/P            1.0000   1.8185   1.8185   3.5585   4.9213   6.3268   7.7976   9.3376
 P, BAR            2.0684   1.1374   1.1374  0.58125  0.42030  0.32693  0.26526  0.22152
 T, K             1034.15   910.67   910.67   785.56   730.08   689.23   656.64   629.54
 RHO, KG/CU M    5.3200-1 3.3222-1 3.3222-1 1.9681-1 1.5313-1 1.2617-1 1.0745-1 9.3592-2
 H, KJ/KG        -6535.23 -6753.64 -6753.64 -6967.41 -7059.75 -7126.76 -7179.63 -7223.20
 U, KJ/KG        -6924.03 -7096.01 -7096.01 -7262.75 -7334.23 -7385.88 -7426.51 -7459.89
 G, KJ/KG        -17581.9 -16481.4 -16481.4 -15358.7 -14858.4 -14489.1 -14193.8 -13947.9
 S, KJ/(KG)(K)    10.6819  10.6819  10.6819  10.6819  10.6819  10.6819  10.6819  10.6819

 M, (1/n)          22.115   22.115   22.115   22.115   22.115   22.115   22.115   22.115
 Cp, KJ/(KG)(K)    1.7983   1.7390   1.7390   1.6780   1.6507   1.6305   1.6143   1.6009
 GAMMAs            1.2643   1.2758   1.2758   1.2887   1.2949   1.2997   1.3036   1.3069
 SON VEL,M/SEC      701.1    660.9    660.9    616.9    596.2    580.3    567.3    556.2
 MACH NUMBER        0.000    1.000    1.000    1.507    1.718    1.874    2.001    2.109

 TRANSPORT PROPERTIES (GASES ONLY)
   CONDUCTIVITY IN UNITS OF MILLIWATTS/(CM)(K)

 VISC,MILLIPOISE  0.44283  0.39913  0.39913  0.35255  0.33110  0.31498  0.30191  0.29091

  WITH FROZEN REACTIONS

 Cp, KJ/(KG)(K)    1.7983   1.7390   1.7390   1.6780   1.6507   1.6305   1.6143   1.6009
 CONDUCTIVITY      0.9459   0.8098   0.8098   0.6763   0.6189   0.5774   0.5449   0.5182
 PRANDTL NUMBER    0.8419   0.8572   0.8572   0.8747   0.8831   0.8894   0.8945   0.8988

 PERFORMANCE PARAMETERS

 Ae/At                      1.0000   1.0000   1.2000   1.4000   1.6000   1.8000   2.0000
 CSTAR, M/SEC                942.0    942.0    942.0    942.0    942.0    942.0    942.0
 CF                         0.7016   0.7016   0.9869   1.0872   1.1546   1.2051   1.2452
 Ivac, M/SEC                1178.9   1178.9   1247.4   1292.2   1325.9   1352.7   1374.8
 Isp, M/SEC                  660.9    660.9    929.7   1024.2   1087.7   1135.3   1173.0

 MOLE FRACTIONS

 H2O             0.70678   *O2             0.29322

  * THERMODYNAMIC PROPERTIES FITTED TO 20000.K

    PRODUCTS WHICH WERE CONSIDERED BUT WHOSE MOLE FRACTIONS
    WERE LESS THAN 5.000000E-06 FOR ALL ASSIGNED CONDITIONS

 *H              HO2             *H2             H2O2            *O             
 *OH             O3              H2O(cr)         H2O(L)         

 NOTE. WEIGHT FRACTION OF FUEL IN TOTAL FUELS AND OF OXIDANT IN TOTAL OXIDANTS






 POINT ITN      T            H           O 
   1    1    1034.152     -19.496     -13.435
 Pinf/Pt = 1.810740
   2    3     911.517     -21.427     -13.563
 Pinf/Pt = 1.818424
   2    2     910.683     -21.442     -13.563
 Pinf/Pt = 1.818477
   2    1     910.677     -21.442     -13.563
   3    1     910.677     -21.442     -13.563
   4    3     793.933     -23.838     -13.705
   4    2     785.414     -24.040     -13.717
   4    2     785.562     -24.037     -13.717
   5    3     738.849     -25.230     -13.782
   5    2     729.993     -25.474     -13.795
   5    2     730.081     -25.471     -13.795
   6    3     696.096     -26.463     -13.847
   6    2     689.198     -26.676     -13.858
   6    1     689.235     -26.675     -13.858
   7    3     660.849     -27.599     -13.905
   7    2     656.633     -27.743     -13.912
   7    1     656.644     -27.742     -13.912
   8    3     627.745     -28.782     -13.964
   8    2     629.542     -28.714     -13.960





              THEORETICAL ROCKET PERFORMANCE ASSUMING EQUILIBRIUM

           COMPOSITION DURING EXPANSION FROM INFINITE AREA COMBUSTOR

 Pin =    40.0 PSIA
 CASE =                

             REACTANT                    WT FRACTION      ENERGY      TEMP
                                          (SEE NOTE)     KJ/KG-MOL      K  
 FUEL        H2O(L)                       1.0000000   -285841.390    298.000
 OXIDANT     H2O2(L)                      1.0000000   -187793.400    298.000

 O/F=    9.20000  %FUEL=  9.803922  R,EQ.RATIO= 0.546532  PHI,EQ.RATIO= 0.000000

                 CHAMBER   THROAT     EXIT     EXIT     EXIT     EXIT     EXIT     EXIT
 Pinf/P            1.0000   1.8185   1.8185   3.5585   4.9213   6.3268   7.7976   9.3376
 P, BAR            2.7579   1.5166   1.5166  0.77501  0.56040  0.43591  0.35368  0.29535
 T, K             1034.15   910.68   910.68   785.56   730.08   689.24   656.64   629.54
 RHO, KG/CU M    7.0934-1 4.4296-1 4.4296-1 2.6241-1 2.0417-1 1.6822-1 1.4327-1 1.2479-1
 H, KJ/KG        -6535.23 -6753.64 -6753.64 -6967.41 -7059.75 -7126.76 -7179.64 -7223.21
 U, KJ/KG        -6924.03 -7096.01 -7096.01 -7262.75 -7334.23 -7385.88 -7426.51 -7459.89
 G, KJ/KG        -17470.1 -16382.9 -16382.9 -15273.7 -14779.4 -14414.6 -14122.8 -13879.8
 S, KJ/(KG)(K)    10.5737  10.5737  10.5737  10.5737  10.5737  10.5737  10.5737  10.5737

 M, (1/n)          22.115   22.115   22.115   22.115   22.115   22.115   22.115   22.115
 (dLV/dLP)t      -1.00000 -1.00000 -1.00000 -1.00000 -1.00000 -1.00000 -1.00000 -1.00000
 (dLV/dLT)p        1.0000   1.0000   1.0000   1.0000   1.0000   1.0000   1.0000   1.0000
 Cp, KJ/(KG)(K)    1.7984   1.7390   1.7390   1.6780   1.6507   1.6305   1.6143   1.6009
 GAMMAs            1.2643   1.2758   1.2758   1.2887   1.2949   1.2997   1.3036   1.3069
 SON VEL,M/SEC      701.1    660.9    660.9    616.9    596.2    580.3    567.3    556.2
 MACH NUMBER        0.000    1.000    1.000    1.507    1.718    1.874    2.001    2.109

 TRANSPORT PROPERTIES (GASES ONLY)
   CONDUCTIVITY IN UNITS OF MILLIWATTS/(CM)(K)

 VISC,MILLIPOISE  0.44283  0.39913  0.39913  0.35255  0.33110  0.31498  0.30191  0.29091

  WITH EQUILIBRIUM REACTIONS

 Cp, KJ/(KG)(K)    1.7984   1.7390   1.7390   1.6780   1.6507   1.6305   1.6143   1.6009
 CONDUCTIVITY      0.9460   0.8098   0.8098   0.6763   0.6189   0.5774   0.5449   0.5182
 PRANDTL NUMBER    0.8418   0.8571   0.8571   0.8747   0.8831   0.8894   0.8945   0.8988

  WITH FROZEN REACTIONS

 Cp, KJ/(KG)(K)    1.7983   1.7390   1.7390   1.6780   1.6507   1.6305   1.6143   1.6009
 CONDUCTIVITY      0.9459   0.8098   0.8098   0.6763   0.6189   0.5774   0.5449   0.5182
 PRANDTL NUMBER    0.8419   0.8572   0.8572   0.8747   0.8831   0.8894   0.8945   0.8988

 PERFORMANCE PARAMETERS

 Ae/At                      1.0000   1.0000   1.2000   1.4000   1.6000   1.8000   2.0000
 CSTAR, M/SEC                942.0    942.0    942.0    942.0    942.0    942.0    942.0
 CF                         0.7016   0.7016   0.9869   1.0872   1.1546   1.2051   1.2452
 Ivac, M/SEC                1179.0   1179.0   1247.4   1292.2   1325.9   1352.7   1374.8
 Isp, M/SEC                  660.9    660.9    929.7   1024.2   1087.7   1135.3   1173.0


 MOLE FRACTIONS

 H2O              0.70678  0.70678  0.70678  0.70678  0.70678  0.70678  0.70678  0.70678
 *O2              0.29322  0.29322  0.29322  0.29322  0.29322  0.29322  0.29322  0.29322

  * THERMODYNAMIC PROPERTIES FITTED TO 20000.K

    PRODUCTS WHICH WERE CONSIDERED BUT WHOSE MOLE FRACTIONS
    WERE LESS THAN 5.000000E-06 FOR ALL ASSIGNED CONDITIONS

 *H              HO2             *H2             H2O2            *O             
 *OH             O3              H2O(cr)         H2O(L)         

 NOTE. WEIGHT FRACTION OF FUEL IN TOTAL FUELS AND OF OXIDANT IN TOTAL OXIDANTS





           THEORETICAL ROCKET PERFORMANCE ASSUMING FROZEN COMPOSITION

 Pin =    40.0 PSIA
 CASE =                

             REACTANT                    WT FRACTION      ENERGY      TEMP
                                          (SEE NOTE)     KJ/KG-MOL      K  
 FUEL        H2O(L)                       1.0000000   -285841.390    298.000
 OXIDANT     H2O2(L)                      1.0000000   -187793.400    298.000

 O/F=    9.20000  %FUEL=  9.803922  R,EQ.RATIO= 0.546532  PHI,EQ.RATIO= 0.000000

                 CHAMBER   THROAT     EXIT     EXIT     EXIT     EXIT     EXIT     EXIT
 Pinf/P            1.0000   1.8185   1.8185   3.5585   4.9213   6.3268   7.7976   9.3376
 P, BAR            2.7579   1.5166   1.5166  0.77501  0.56040  0.43591  0.35368  0.29535
 T, K             1034.15   910.67   910.67   785.56   730.08   689.23   656.64   629.54
 RHO, KG/CU M    7.0934-1 4.4296-1 4.4296-1 2.6241-1 2.0417-1 1.6822-1 1.4327-1 1.2479-1
 H, KJ/KG        -6535.23 -6753.64 -6753.64 -6967.41 -7059.75 -7126.76 -7179.63 -7223.20
 U, KJ/KG        -6924.03 -7096.01 -7096.01 -7262.75 -7334.23 -7385.88 -7426.51 -7459.89
 G, KJ/KG        -17470.1 -16382.9 -16382.9 -15273.7 -14779.4 -14414.5 -14122.8 -13879.8
 S, KJ/(KG)(K)    10.5737  10.5737  10.5737  10.5737  10.5737  10.5737  10.5737  10.5737

 M, (1/n)          22.115   22.115   22.115   22.115   22.115   22.115   22.115   22.115
 Cp, KJ/(KG)(K)    1.7983   1.7390   1.7390   1.6780   1.6507   1.6305   1.6143   1.6009
 GAMMAs            1.2643   1.2758   1.2758   1.2887   1.2949   1.2997   1.3036   1.3069
 SON VEL,M/SEC      701.1    660.9    660.9    616.9    596.2    580.3    567.3    556.2
 MACH NUMBER        0.000    1.000    1.000    1.507    1.718    1.874    2.001    2.109

 TRANSPORT PROPERTIES (GASES ONLY)
   CONDUCTIVITY IN UNITS OF MILLIWATTS/(CM)(K)

 VISC,MILLIPOISE  0.44283  0.39913  0.39913  0.35255  0.33110  0.31498  0.30191  0.29091

  WITH FROZEN REACTIONS

 Cp, KJ/(KG)(K)    1.7983   1.7390   1.7390   1.6780   1.6507   1.6305   1.6143   1.6009
 CONDUCTIVITY      0.9459   0.8098   0.8098   0.6763   0.6189   0.5774   0.5449   0.5182
 PRANDTL NUMBER    0.8419   0.8572   0.8572   0.8747   0.8831   0.8894   0.8945   0.8988

 PERFORMANCE PARAMETERS

 Ae/At                      1.0000   1.0000   1.2000   1.4000   1.6000   1.8000   2.0000
 CSTAR, M/SEC                942.0    942.0    942.0    942.0    942.0    942.0    942.0
 CF                         0.7016   0.7016   0.9869   1.0872   1.1546   1.2051   1.2452
 Ivac, M/SEC                1178.9   1178.9   1247.4   1292.2   1325.9   1352.7   1374.8
 Isp, M/SEC                  660.9    660.9    929.7   1024.2   1087.7   1135.3   1173.0

 MOLE FRACTIONS

 H2O             0.70678   *O2             0.29322

  * THERMODYNAMIC PROPERTIES FITTED TO 20000.K

    PRODUCTS WHICH WERE CONSIDERED BUT WHOSE MOLE FRACTIONS
    WERE LESS THAN 5.000000E-06 FOR ALL ASSIGNED CONDITIONS

 *H              HO2             *H2             H2O2            *O             
 *OH             O3              H2O(cr)         H2O(L)         

 NOTE. WEIGHT FRACTION OF FUEL IN TOTAL FUELS AND OF OXIDANT IN TOTAL OXIDANTS






 POINT ITN      T            H           O 
   1    1    1034.152     -19.440     -13.324
 Pinf/Pt = 1.810740
   2    3     911.516     -21.371     -13.451
 Pinf/Pt = 1.818424
   2    2     910.683     -21.386     -13.452
 Pinf/Pt = 1.818477
   2    1     910.677     -21.386     -13.452
   3    1     910.677     -21.386     -13.452
   4    3     793.933     -23.782     -13.594
   4    2     785.414     -23.984     -13.605
   4    2     785.562     -23.981     -13.605
   5    3     738.849     -25.174     -13.670
   5    2     729.993     -25.418     -13.683
   5    2     730.081     -25.416     -13.683
   6    3     696.096     -26.407     -13.735
   6    2     689.198     -26.620     -13.746
   6    1     689.235     -26.619     -13.746
   7    3     660.849     -27.543     -13.793
   7    2     656.633     -27.687     -13.801
   7    1     656.644     -27.687     -13.801
   8    3     627.745     -28.726     -13.852
   8    2     629.542     -28.658     -13.849





              THEORETICAL ROCKET PERFORMANCE ASSUMING EQUILIBRIUM

           COMPOSITION DURING EXPANSION FROM INFINITE AREA COMBUSTOR

 Pin =    50.0 PSIA
 CASE =                

             REACTANT                    WT FRACTION      ENERGY      TEMP
                                          (SEE NOTE)     KJ/KG-MOL      K  
 FUEL        H2O(L)                       1.0000000   -285841.390    298.000
 OXIDANT     H2O2(L)                      1.0000000   -187793.400    298.000

 O/F=    9.20000  %FUEL=  9.803922  R,EQ.RATIO= 0.546532  PHI,EQ.RATIO= 0.000000

                 CHAMBER   THROAT     EXIT     EXIT     EXIT     EXIT     EXIT     EXIT
 Pinf/P            1.0000   1.8185   1.8185   3.5585   4.9213   6.3268   7.7976   9.3376
 P, BAR            3.4474   1.8957   1.8957  0.96876  0.70050  0.54489  0.44210  0.36919
 T, K             1034.15   910.68   910.68   785.56   730.08   689.24   656.64   629.54
 RHO, KG/CU M    8.8667-1 5.5370-1 5.5370-1 3.2802-1 2.5521-1 2.1028-1 1.7908-1 1.5599-1
 H, KJ/KG        -6535.23 -6753.64 -6753.64 -6967.41 -7059.75 -7126.76 -7179.64 -7223.21
 U, KJ/KG        -6924.03 -7096.01 -7096.01 -7262.75 -7334.23 -7385.88 -7426.51 -7459.89
 G, KJ/KG        -17383.3 -16306.5 -16306.5 -15207.8 -14718.2 -14356.7 -14067.7 -13827.0
 S, KJ/(KG)(K)    10.4899  10.4899  10.4899  10.4899  10.4899  10.4899  10.4899  10.4899

 M, (1/n)          22.115   22.115   22.115   22.115   22.115   22.115   22.115   22.115
 (dLV/dLP)t      -1.00000 -1.00000 -1.00000 -1.00000 -1.00000 -1.00000 -1.00000 -1.00000
 (dLV/dLT)p        1.0000   1.0000   1.0000   1.0000   1.0000   1.0000   1.0000   1.0000
 Cp, KJ/(KG)(K)    1.7984   1.7390   1.7390   1.6780   1.6507   1.6305   1.6143   1.6009
 GAMMAs            1.2643   1.2758   1.2758   1.2887   1.2949   1.2997   1.3036   1.3069
 SON VEL,M/SEC      701.1    660.9    660.9    616.9    596.2    580.3    567.3    556.2
 MACH NUMBER        0.000    1.000    1.000    1.507    1.718    1.874    2.001    2.109

 TRANSPORT PROPERTIES (GASES ONLY)
   CONDUCTIVITY IN UNITS OF MILLIWATTS/(CM)(K)

 VISC,MILLIPOISE  0.44283  0.39913  0.39913  0.35255  0.33110  0.31498  0.30191  0.29091

  WITH EQUILIBRIUM REACTIONS

 Cp, KJ/(KG)(K)    1.7984   1.7390   1.7390   1.6780   1.6507   1.6305   1.6143   1.6009
 CONDUCTIVITY      0.9460   0.8098   0.8098   0.6763   0.6189   0.5774   0.5449   0.5182
 PRANDTL NUMBER    0.8418   0.8571   0.8571   0.8747   0.8831   0.8894   0.8945   0.8988

  WITH FROZEN REACTIONS

 Cp, KJ/(KG)(K)    1.7983   1.7390   1.7390   1.6780   1.6507   1.6305   1.6143   1.6009
 CONDUCTIVITY      0.9459   0.8098   0.8098   0.6763   0.6189   0.5774   0.5449   0.5182
 PRANDTL NUMBER    0.8419   0.8572   0.8572   0.8747   0.8831   0.8894   0.8945   0.8988

 PERFORMANCE PARAMETERS

 Ae/At                      1.0000   1.0000   1.2000   1.4000   1.6000   1.8000   2.0000
 CSTAR, M/SEC                942.0    942.0    942.0    942.0    942.0    942.0    942.0
 CF                         0.7016   0.7016   0.9869   1.0872   1.1546   1.2051   1.2452
 Ivac, M/SEC                1179.0   1179.0   1247.4   1292.2   1325.9   1352.7   1374.8
 Isp, M/SEC                  660.9    660.9    929.7   1024.2   1087.7   1135.3   1173.0


 MOLE FRACTIONS

 H2O              0.70678  0.70678  0.70678  0.70678  0.70678  0.70678  0.70678  0.70678
 *O2              0.29322  0.29322  0.29322  0.29322  0.29322  0.29322  0.29322  0.29322

  * THERMODYNAMIC PROPERTIES FITTED TO 20000.K

    PRODUCTS WHICH WERE CONSIDERED BUT WHOSE MOLE FRACTIONS
    WERE LESS THAN 5.000000E-06 FOR ALL ASSIGNED CONDITIONS

 *H              HO2             *H2             H2O2            *O             
 *OH             O3              H2O(cr)         H2O(L)         

 NOTE. WEIGHT FRACTION OF FUEL IN TOTAL FUELS AND OF OXIDANT IN TOTAL OXIDANTS





           THEORETICAL ROCKET PERFORMANCE ASSUMING FROZEN COMPOSITION

 Pin =    50.0 PSIA
 CASE =                

             REACTANT                    WT FRACTION      ENERGY      TEMP
                                          (SEE NOTE)     KJ/KG-MOL      K  
 FUEL        H2O(L)                       1.0000000   -285841.390    298.000
 OXIDANT     H2O2(L)                      1.0000000   -187793.400    298.000

 O/F=    9.20000  %FUEL=  9.803922  R,EQ.RATIO= 0.546532  PHI,EQ.RATIO= 0.000000

                 CHAMBER   THROAT     EXIT     EXIT     EXIT     EXIT     EXIT     EXIT
 Pinf/P            1.0000   1.8185   1.8185   3.5585   4.9213   6.3268   7.7976   9.3376
 P, BAR            3.4474   1.8957   1.8957  0.96876  0.70050  0.54489  0.44210  0.36919
 T, K             1034.15   910.67   910.67   785.56   730.08   689.23   656.64   629.54
 RHO, KG/CU M    8.8667-1 5.5370-1 5.5370-1 3.2802-1 2.5521-1 2.1028-1 1.7908-1 1.5599-1
 H, KJ/KG        -6535.23 -6753.64 -6753.64 -6967.41 -7059.75 -7126.76 -7179.63 -7223.20
 U, KJ/KG        -6924.03 -7096.01 -7096.01 -7262.75 -7334.23 -7385.88 -7426.51 -7459.89
 G, KJ/KG        -17383.3 -16306.5 -16306.5 -15207.8 -14718.2 -14356.7 -14067.7 -13827.0
 S, KJ/(KG)(K)    10.4899  10.4899  10.4899  10.4899  10.4899  10.4899  10.4899  10.4899

 M, (1/n)          22.115   22.115   22.115   22.115   22.115   22.115   22.115   22.115
 Cp, KJ/(KG)(K)    1.7983   1.7390   1.7390   1.6780   1.6507   1.6305   1.6143   1.6009
 GAMMAs            1.2643   1.2758   1.2758   1.2887   1.2949   1.2997   1.3036   1.3069
 SON VEL,M/SEC      701.1    660.9    660.9    616.9    596.2    580.3    567.3    556.2
 MACH NUMBER        0.000    1.000    1.000    1.507    1.718    1.874    2.001    2.109

 TRANSPORT PROPERTIES (GASES ONLY)
   CONDUCTIVITY IN UNITS OF MILLIWATTS/(CM)(K)

 VISC,MILLIPOISE  0.44283  0.39913  0.39913  0.35255  0.33110  0.31498  0.30191  0.29091

  WITH FROZEN REACTIONS

 Cp, KJ/(KG)(K)    1.7983   1.7390   1.7390   1.6780   1.6507   1.6305   1.6143   1.6009
 CONDUCTIVITY      0.9459   0.8098   0.8098   0.6763   0.6189   0.5774   0.5449   0.5182
 PRANDTL NUMBER    0.8419   0.8572   0.8572   0.8747   0.8831   0.8894   0.8945   0.8988

 PERFORMANCE PARAMETERS

 Ae/At                      1.0000   1.0000   1.2000   1.4000   1.6000   1.8000   2.0000
 CSTAR, M/SEC                942.0    942.0    942.0    942.0    942.0    942.0    942.0
 CF                         0.7016   0.7016   0.9869   1.0872   1.1546   1.2051   1.2452
 Ivac, M/SEC                1178.9   1178.9   1247.4   1292.2   1325.9   1352.7   1374.8
 Isp, M/SEC                  660.9    660.9    929.7   1024.2   1087.7   1135.3   1173.0

 MOLE FRACTIONS

 H2O             0.70678   *O2             0.29322

  * THERMODYNAMIC PROPERTIES FITTED TO 20000.K

    PRODUCTS WHICH WERE CONSIDERED BUT WHOSE MOLE FRACTIONS
    WERE LESS THAN 5.000000E-06 FOR ALL ASSIGNED CONDITIONS

 *H              HO2             *H2             H2O2            *O             
 *OH             O3              H2O(cr)         H2O(L)         

 NOTE. WEIGHT FRACTION OF FUEL IN TOTAL FUELS AND OF OXIDANT IN TOTAL OXIDANTS






 O/F =   9.400000

                       EFFECTIVE FUEL     EFFECTIVE OXIDANT        MIXTURE
 ENTHALPY                  h(2)/R              h(1)/R               h0/R
 (KG-MOL)(K)/KG       -0.19083035E+04     -0.66401406E+03     -0.78365727E+03

 KG-FORM.WT./KG             bi(2)               bi(1)               b0i
  *H                   0.11101687E+00      0.58798142E-01      0.63819174E-01
  *O                   0.55508435E-01      0.58798142E-01      0.58481824E-01

 POINT ITN      T            H           O 
   1    2    1038.760     -19.612     -13.787
 Pinf/Pt = 1.810518
   2    3     915.727     -21.532     -13.914
 Pinf/Pt = 1.818197
   2    2     914.891     -21.547     -13.915
 Pinf/Pt = 1.818250
   2    1     914.885     -21.547     -13.915
   3    1     914.885     -21.547     -13.915
   4    3     797.714     -23.929     -14.056
   4    2     789.189     -24.130     -14.068
   4    2     789.337     -24.126     -14.067
   5    3     742.421     -25.313     -14.133
   5    2     733.566     -25.555     -14.146
   5    2     733.654     -25.552     -14.145
   6    3     699.500     -26.539     -14.197
   6    2     692.617     -26.750     -14.208
   6    1     692.655     -26.748     -14.208
   7    3     664.113     -27.668     -14.255
   7    2     659.927     -27.810     -14.262
   7    1     659.938     -27.809     -14.262
   8    3     630.911     -28.843     -14.314
   8    2     632.730     -28.775     -14.310





              THEORETICAL ROCKET PERFORMANCE ASSUMING EQUILIBRIUM

           COMPOSITION DURING EXPANSION FROM INFINITE AREA COMBUSTOR

 Pin =    20.0 PSIA
 CASE =                

             REACTANT                    WT FRACTION      ENERGY      TEMP
                                          (SEE NOTE)     KJ/KG-MOL      K  
 FUEL        H2O(L)                       1.0000000   -285841.390    298.000
 OXIDANT     H2O2(L)                      1.0000000   -187793.400    298.000

 O/F=    9.40000  %FUEL=  9.615385  R,EQ.RATIO= 0.545633  PHI,EQ.RATIO= 0.000000

                 CHAMBER   THROAT     EXIT     EXIT     EXIT     EXIT     EXIT     EXIT
 Pinf/P            1.0000   1.8182   1.8182   3.5576   4.9196   6.3243   7.7943   9.3333
 P, BAR            1.3789  0.75839  0.75839  0.38761  0.28029  0.21804  0.17692  0.14775
 T, K             1038.76   914.88   914.88   789.34   733.65   692.65   659.94   632.73
 RHO, KG/CU M    3.5326-1 2.2059-1 2.2059-1 1.3068-1 1.0167-1 8.3769-2 7.1340-2 6.2139-2
 H, KJ/KG        -6515.73 -6734.97 -6734.97 -6949.60 -7042.33 -7109.62 -7162.73 -7206.49
 U, KJ/KG        -6906.07 -7078.77 -7078.77 -7246.22 -7318.02 -7369.91 -7410.72 -7444.25
 G, KJ/KG        -17773.6 -16650.3 -16650.3 -15504.3 -14993.5 -14616.5 -14315.0 -14063.9
 S, KJ/(KG)(K)    10.8378  10.8378  10.8378  10.8378  10.8378  10.8378  10.8378  10.8378

 M, (1/n)          22.126   22.126   22.126   22.126   22.126   22.126   22.126   22.126
 (dLV/dLP)t      -1.00000 -1.00000 -1.00000 -1.00000 -1.00000 -1.00000 -1.00000 -1.00000
 (dLV/dLT)p        1.0000   1.0000   1.0000   1.0000   1.0000   1.0000   1.0000   1.0000
 Cp, KJ/(KG)(K)    1.7995   1.7401   1.7401   1.6789   1.6515   1.6313   1.6151   1.6016
 GAMMAs            1.2640   1.2754   1.2754   1.2884   1.2946   1.2993   1.3032   1.3066
 SON VEL,M/SEC      702.4    662.2    662.2    618.2    597.4    581.5    568.5    557.4
 MACH NUMBER        0.000    1.000    1.000    1.507    1.718    1.874    2.001    2.109

 TRANSPORT PROPERTIES (GASES ONLY)
   CONDUCTIVITY IN UNITS OF MILLIWATTS/(CM)(K)

 VISC,MILLIPOISE  0.44453  0.40077  0.40077  0.35412  0.33263  0.31647  0.30337  0.29234

  WITH EQUILIBRIUM REACTIONS

 Cp, KJ/(KG)(K)    1.7995   1.7401   1.7401   1.6789   1.6515   1.6313   1.6151   1.6016
 CONDUCTIVITY      0.9509   0.8142   0.8142   0.6802   0.6225   0.5809   0.5481   0.5213
 PRANDTL NUMBER    0.8412   0.8565   0.8565   0.8740   0.8824   0.8888   0.8939   0.8981

  WITH FROZEN REACTIONS

 Cp, KJ/(KG)(K)    1.7994   1.7400   1.7400   1.6789   1.6515   1.6313   1.6151   1.6016
 CONDUCTIVITY      0.9509   0.8142   0.8142   0.6802   0.6225   0.5809   0.5481   0.5213
 PRANDTL NUMBER    0.8412   0.8565   0.8565   0.8740   0.8824   0.8888   0.8939   0.8981

 PERFORMANCE PARAMETERS

 Ae/At                      1.0000   1.0000   1.2000   1.4000   1.6000   1.8000   2.0000
 CSTAR, M/SEC                944.0    944.0    944.0    944.0    944.0    944.0    944.0
 CF                         0.7015   0.7015   0.9868   1.0871   1.1545   1.2050   1.2451
 Ivac, M/SEC                1181.4   1181.4   1250.0   1294.9   1328.7   1355.5   1377.7
 Isp, M/SEC                  662.2    662.2    931.5   1026.3   1089.9   1137.5   1175.4


 MOLE FRACTIONS

 H2O              0.70603  0.70603  0.70603  0.70603  0.70603  0.70603  0.70603  0.70603
 *O2              0.29397  0.29397  0.29397  0.29397  0.29397  0.29397  0.29397  0.29397

  * THERMODYNAMIC PROPERTIES FITTED TO 20000.K

    PRODUCTS WHICH WERE CONSIDERED BUT WHOSE MOLE FRACTIONS
    WERE LESS THAN 5.000000E-06 FOR ALL ASSIGNED CONDITIONS

 *H              HO2             *H2             H2O2            *O             
 *OH             O3              H2O(cr)         H2O(L)         

 NOTE. WEIGHT FRACTION OF FUEL IN TOTAL FUELS AND OF OXIDANT IN TOTAL OXIDANTS





           THEORETICAL ROCKET PERFORMANCE ASSUMING FROZEN COMPOSITION

 Pin =    20.0 PSIA
 CASE =                

             REACTANT                    WT FRACTION      ENERGY      TEMP
                                          (SEE NOTE)     KJ/KG-MOL      K  
 FUEL        H2O(L)                       1.0000000   -285841.390    298.000
 OXIDANT     H2O2(L)                      1.0000000   -187793.400    298.000

 O/F=    9.40000  %FUEL=  9.615385  R,EQ.RATIO= 0.545633  PHI,EQ.RATIO= 0.000000

                 CHAMBER   THROAT     EXIT     EXIT     EXIT     EXIT     EXIT     EXIT
 Pinf/P            1.0000   1.8183   1.8183   3.5576   4.9196   6.3243   7.7943   9.3333
 P, BAR            1.3789  0.75839  0.75839  0.38761  0.28029  0.21804  0.17692  0.14775
 T, K             1038.76   914.88   914.88   789.33   733.65   692.65   659.94   632.73
 RHO, KG/CU M    3.5326-1 2.2059-1 2.2059-1 1.3068-1 1.0167-1 8.3769-2 7.1340-2 6.2139-2
 H, KJ/KG        -6515.73 -6734.97 -6734.97 -6949.60 -7042.33 -7109.62 -7162.73 -7206.49
 U, KJ/KG        -6906.07 -7078.77 -7078.77 -7246.22 -7318.02 -7369.91 -7410.72 -7444.25
 G, KJ/KG        -17773.6 -16650.3 -16650.3 -15504.2 -14993.5 -14616.4 -14315.0 -14063.9
 S, KJ/(KG)(K)    10.8378  10.8378  10.8378  10.8378  10.8378  10.8378  10.8378  10.8378

 M, (1/n)          22.126   22.126   22.126   22.126   22.126   22.126   22.126   22.126
 Cp, KJ/(KG)(K)    1.7994   1.7400   1.7400   1.6789   1.6515   1.6313   1.6151   1.6016
 GAMMAs            1.2640   1.2754   1.2754   1.2884   1.2946   1.2993   1.3032   1.3066
 SON VEL,M/SEC      702.4    662.2    662.2    618.2    597.4    581.5    568.5    557.4
 MACH NUMBER        0.000    1.000    1.000    1.507    1.718    1.874    2.001    2.109

 TRANSPORT PROPERTIES (GASES ONLY)
   CONDUCTIVITY IN UNITS OF MILLIWATTS/(CM)(K)

 VISC,MILLIPOISE  0.44453  0.40077  0.40077  0.35412  0.33263  0.31647  0.30337  0.29234

  WITH FROZEN REACTIONS

 Cp, KJ/(KG)(K)    1.7994   1.7400   1.7400   1.6789   1.6515   1.6313   1.6151   1.6016
 CONDUCTIVITY      0.9509   0.8142   0.8142   0.6802   0.6225   0.5809   0.5481   0.5213
 PRANDTL NUMBER    0.8412   0.8565   0.8565   0.8740   0.8824   0.8888   0.8939   0.8981

 PERFORMANCE PARAMETERS

 Ae/At                      1.0000   1.0000   1.2000   1.4000   1.6000   1.8000   2.0000
 CSTAR, M/SEC                944.0    944.0    944.0    944.0    944.0    944.0    944.0
 CF                         0.7015   0.7015   0.9868   1.0871   1.1545   1.2050   1.2451
 Ivac, M/SEC                1181.4   1181.4   1249.9   1294.9   1328.7   1355.5   1377.7
 Isp, M/SEC                  662.2    662.2    931.5   1026.3   1089.9   1137.5   1175.4

 MOLE FRACTIONS

 H2O             0.70603   *O2             0.29397

  * THERMODYNAMIC PROPERTIES FITTED TO 20000.K

    PRODUCTS WHICH WERE CONSIDERED BUT WHOSE MOLE FRACTIONS
    WERE LESS THAN 5.000000E-06 FOR ALL ASSIGNED CONDITIONS

 *H              HO2             *H2             H2O2            *O             
 *OH             O3              H2O(cr)         H2O(L)         

 NOTE. WEIGHT FRACTION OF FUEL IN TOTAL FUELS AND OF OXIDANT IN TOTAL OXIDANTS






 POINT ITN      T            H           O 
   1    1    1038.761     -19.511     -13.584
 Pinf/Pt = 1.810519
   2    3     915.727     -21.431     -13.711
 Pinf/Pt = 1.818198
   2    2     914.891     -21.445     -13.712
 Pinf/Pt = 1.818250
   2    1     914.885     -21.446     -13.712
   3    1     914.885     -21.446     -13.712
   4    3     797.714     -23.827     -13.853
   4    2     789.189     -24.028     -13.865
   4    2     789.337     -24.025     -13.865
   5    3     742.421     -25.212     -13.930
   5    2     733.566     -25.453     -13.943
   5    2     733.654     -25.451     -13.943
   6    3     699.500     -26.438     -13.995
   6    2     692.617     -26.648     -14.006
   6    1     692.655     -26.647     -14.006
   7    3     664.113     -27.567     -14.053
   7    2     659.927     -27.708     -14.060
   7    1     659.938     -27.708     -14.060
   8    3     630.911     -28.741     -14.111
   8    2     632.730     -28.674     -14.108





              THEORETICAL ROCKET PERFORMANCE ASSUMING EQUILIBRIUM

           COMPOSITION DURING EXPANSION FROM INFINITE AREA COMBUSTOR

 Pin =    30.0 PSIA
 CASE =                

             REACTANT                    WT FRACTION      ENERGY      TEMP
                                          (SEE NOTE)     KJ/KG-MOL      K  
 FUEL        H2O(L)                       1.0000000   -285841.390    298.000
 OXIDANT     H2O2(L)                      1.0000000   -187793.400    298.000

 O/F=    9.40000  %FUEL=  9.615385  R,EQ.RATIO= 0.545633  PHI,EQ.RATIO= 0.000000

                 CHAMBER   THROAT     EXIT     EXIT     EXIT     EXIT     EXIT     EXIT
 Pinf/P            1.0000   1.8183   1.8183   3.5576   4.9196   6.3243   7.7943   9.3333
 P, BAR            2.0684   1.1376   1.1376  0.58141  0.42044  0.32706  0.26538  0.22162
 T, K             1038.76   914.88   914.88   789.34   733.65   692.65   659.94   632.73
 RHO, KG/CU M    5.2989-1 3.3089-1 3.3089-1 1.9601-1 1.5250-1 1.2565-1 1.0701-1 9.3208-2
 H, KJ/KG        -6515.73 -6734.97 -6734.97 -6949.60 -7042.33 -7109.62 -7162.73 -7206.49
 U, KJ/KG        -6906.07 -7078.77 -7078.77 -7246.22 -7318.02 -7369.91 -7410.72 -7444.25
 G, KJ/KG        -17615.3 -16510.9 -16510.9 -15384.0 -14881.7 -14510.9 -14214.4 -13967.5
 S, KJ/(KG)(K)    10.6854  10.6854  10.6854  10.6854  10.6854  10.6854  10.6854  10.6854

 M, (1/n)          22.126   22.126   22.126   22.126   22.126   22.126   22.126   22.126
 (dLV/dLP)t      -1.00000 -1.00000 -1.00000 -1.00000 -1.00000 -1.00000 -1.00000 -1.00000
 (dLV/dLT)p        1.0000   1.0000   1.0000   1.0000   1.0000   1.0000   1.0000   1.0000
 Cp, KJ/(KG)(K)    1.7995   1.7401   1.7401   1.6789   1.6515   1.6313   1.6151   1.6016
 GAMMAs            1.2640   1.2754   1.2754   1.2884   1.2946   1.2993   1.3032   1.3066
 SON VEL,M/SEC      702.4    662.2    662.2    618.2    597.4    581.5    568.5    557.4
 MACH NUMBER        0.000    1.000    1.000    1.507    1.718    1.874    2.001    2.109

 TRANSPORT PROPERTIES (GASES ONLY)
   CONDUCTIVITY IN UNITS OF MILLIWATTS/(CM)(K)

 VISC,MILLIPOISE  0.44453  0.40077  0.40077  0.35412  0.33263  0.31647  0.30337  0.29234

  WITH EQUILIBRIUM REACTIONS

 Cp, KJ/(KG)(K)    1.7995   1.7401   1.7401   1.6789   1.6515   1.6313   1.6151   1.6016
 CONDUCTIVITY      0.9509   0.8142   0.8142   0.6802   0.6225   0.5809   0.5481   0.5213
 PRANDTL NUMBER    0.8412   0.8565   0.8565   0.8740   0.8824   0.8888   0.8939   0.8981

  WITH FROZEN REACTIONS

 Cp, KJ/(KG)(K)    1.7994   1.7400   1.7400   1.6789   1.6515   1.6313   1.6151   1.6016
 CONDUCTIVITY      0.9509   0.8142   0.8142   0.6802   0.6225   0.5809   0.5481   0.5213
 PRANDTL NUMBER    0.8412   0.8565   0.8565   0.8740   0.8824   0.8888   0.8939   0.8981

 PERFORMANCE PARAMETERS

 Ae/At                      1.0000   1.0000   1.2000   1.4000   1.6000   1.8000   2.0000
 CSTAR, M/SEC                944.0    944.0    944.0    944.0    944.0    944.0    944.0
 CF                         0.7015   0.7015   0.9868   1.0871   1.1545   1.2050   1.2451
 Ivac, M/SEC                1181.4   1181.4   1250.0   1294.9   1328.7   1355.5   1377.7
 Isp, M/SEC                  662.2    662.2    931.5   1026.3   1089.9   1137.5   1175.4


 MOLE FRACTIONS

 H2O              0.70603  0.70603  0.70603  0.70603  0.70603  0.70603  0.70603  0.70603
 *O2              0.29397  0.29397  0.29397  0.29397  0.29397  0.29397  0.29397  0.29397

  * THERMODYNAMIC PROPERTIES FITTED TO 20000.K

    PRODUCTS WHICH WERE CONSIDERED BUT WHOSE MOLE FRACTIONS
    WERE LESS THAN 5.000000E-06 FOR ALL ASSIGNED CONDITIONS

 *H              HO2             *H2             H2O2            *O             
 *OH             O3              H2O(cr)         H2O(L)         

 NOTE. WEIGHT FRACTION OF FUEL IN TOTAL FUELS AND OF OXIDANT IN TOTAL OXIDANTS





           THEORETICAL ROCKET PERFORMANCE ASSUMING FROZEN COMPOSITION

 Pin =    30.0 PSIA
 CASE =                

             REACTANT                    WT FRACTION      ENERGY      TEMP
                                          (SEE NOTE)     KJ/KG-MOL      K  
 FUEL        H2O(L)                       1.0000000   -285841.390    298.000
 OXIDANT     H2O2(L)                      1.0000000   -187793.400    298.000

 O/F=    9.40000  %FUEL=  9.615385  R,EQ.RATIO= 0.545633  PHI,EQ.RATIO= 0.000000

                 CHAMBER   THROAT     EXIT     EXIT     EXIT     EXIT     EXIT     EXIT
 Pinf/P            1.0000   1.8183   1.8183   3.5576   4.9196   6.3243   7.7943   9.3333
 P, BAR            2.0684   1.1376   1.1376  0.58141  0.42044  0.32706  0.26538  0.22162
 T, K             1038.76   914.88   914.88   789.33   733.65   692.65   659.94   632.73
 RHO, KG/CU M    5.2989-1 3.3089-1 3.3089-1 1.9601-1 1.5250-1 1.2565-1 1.0701-1 9.3208-2
 H, KJ/KG        -6515.73 -6734.97 -6734.97 -6949.60 -7042.33 -7109.62 -7162.73 -7206.49
 U, KJ/KG        -6906.07 -7078.77 -7078.77 -7246.22 -7318.02 -7369.91 -7410.72 -7444.25
 G, KJ/KG        -17615.3 -16510.9 -16510.9 -15384.0 -14881.7 -14510.9 -14214.4 -13967.5
 S, KJ/(KG)(K)    10.6854  10.6854  10.6854  10.6854  10.6854  10.6854  10.6854  10.6854

 M, (1/n)          22.126   22.126   22.126   22.126   22.126   22.126   22.126   22.126
 Cp, KJ/(KG)(K)    1.7994   1.7400   1.7400   1.6789   1.6515   1.6313   1.6151   1.6016
 GAMMAs            1.2640   1.2754   1.2754   1.2884   1.2946   1.2993   1.3032   1.3066
 SON VEL,M/SEC      702.4    662.2    662.2    618.2    597.4    581.5    568.5    557.4
 MACH NUMBER        0.000    1.000    1.000    1.507    1.718    1.874    2.001    2.109

 TRANSPORT PROPERTIES (GASES ONLY)
   CONDUCTIVITY IN UNITS OF MILLIWATTS/(CM)(K)

 VISC,MILLIPOISE  0.44453  0.40077  0.40077  0.35412  0.33263  0.31647  0.30337  0.29234

  WITH FROZEN REACTIONS

 Cp, KJ/(KG)(K)    1.7994   1.7400   1.7400   1.6789   1.6515   1.6313   1.6151   1.6016
 CONDUCTIVITY      0.9509   0.8142   0.8142   0.6802   0.6225   0.5809   0.5481   0.5213
 PRANDTL NUMBER    0.8412   0.8565   0.8565   0.8740   0.8824   0.8888   0.8939   0.8981

 PERFORMANCE PARAMETERS

 Ae/At                      1.0000   1.0000   1.2000   1.4000   1.6000   1.8000   2.0000
 CSTAR, M/SEC                944.0    944.0    944.0    944.0    944.0    944.0    944.0
 CF                         0.7015   0.7015   0.9868   1.0871   1.1545   1.2050   1.2451
 Ivac, M/SEC                1181.4   1181.4   1249.9   1294.9   1328.7   1355.5   1377.7
 Isp, M/SEC                  662.2    662.2    931.5   1026.3   1089.9   1137.5   1175.4

 MOLE FRACTIONS

 H2O             0.70603   *O2             0.29397

  * THERMODYNAMIC PROPERTIES FITTED TO 20000.K

    PRODUCTS WHICH WERE CONSIDERED BUT WHOSE MOLE FRACTIONS
    WERE LESS THAN 5.000000E-06 FOR ALL ASSIGNED CONDITIONS

 *H              HO2             *H2             H2O2            *O             
 *OH             O3              H2O(cr)         H2O(L)         

 NOTE. WEIGHT FRACTION OF FUEL IN TOTAL FUELS AND OF OXIDANT IN TOTAL OXIDANTS






 POINT ITN      T            H           O 
   1    1    1038.761     -19.439     -13.440
 Pinf/Pt = 1.810520
   2    3     915.727     -21.359     -13.567
 Pinf/Pt = 1.818198
   2    2     914.891     -21.374     -13.568
 Pinf/Pt = 1.818250
   2    1     914.885     -21.374     -13.568
   3    1     914.885     -21.374     -13.568
   4    3     797.714     -23.756     -13.710
   4    2     789.189     -23.956     -13.721
   4    2     789.337     -23.953     -13.721
   5    3     742.421     -25.140     -13.786
   5    2     733.566     -25.381     -13.799
   5    2     733.654     -25.379     -13.799
   6    3     699.500     -26.366     -13.851
   6    2     692.617     -26.576     -13.862
   6    1     692.655     -26.575     -13.862
   7    3     664.113     -27.495     -13.909
   7    2     659.927     -27.637     -13.916
   7    1     659.938     -27.636     -13.916
   8    3     630.911     -28.670     -13.967
   8    2     632.730     -28.602     -13.964





              THEORETICAL ROCKET PERFORMANCE ASSUMING EQUILIBRIUM

           COMPOSITION DURING EXPANSION FROM INFINITE AREA COMBUSTOR

 Pin =    40.0 PSIA
 CASE =                

             REACTANT                    WT FRACTION      ENERGY      TEMP
                                          (SEE NOTE)     KJ/KG-MOL      K  
 FUEL        H2O(L)                       1.0000000   -285841.390    298.000
 OXIDANT     H2O2(L)                      1.0000000   -187793.400    298.000

 O/F=    9.40000  %FUEL=  9.615385  R,EQ.RATIO= 0.545633  PHI,EQ.RATIO= 0.000000

                 CHAMBER   THROAT     EXIT     EXIT     EXIT     EXIT     EXIT     EXIT
 Pinf/P            1.0000   1.8182   1.8182   3.5576   4.9196   6.3243   7.7943   9.3333
 P, BAR            2.7579   1.5168   1.5168  0.77521  0.56059  0.43608  0.35384  0.29549
 T, K             1038.76   914.88   914.88   789.34   733.65   692.65   659.94   632.73
 RHO, KG/CU M    7.0653-1 4.4119-1 4.4119-1 2.6135-1 2.0334-1 1.6754-1 1.4268-1 1.2428-1
 H, KJ/KG        -6515.73 -6734.97 -6734.97 -6949.60 -7042.33 -7109.62 -7162.73 -7206.49
 U, KJ/KG        -6906.07 -7078.77 -7078.77 -7246.22 -7318.02 -7369.91 -7410.72 -7444.25
 G, KJ/KG        -17503.0 -16412.0 -16412.0 -15298.7 -14802.4 -14436.1 -14143.1 -13899.1
 S, KJ/(KG)(K)    10.5773  10.5773  10.5773  10.5773  10.5773  10.5773  10.5773  10.5773

 M, (1/n)          22.126   22.126   22.126   22.126   22.126   22.126   22.126   22.126
 (dLV/dLP)t      -1.00000 -1.00000 -1.00000 -1.00000 -1.00000 -1.00000 -1.00000 -1.00000
 (dLV/dLT)p        1.0000   1.0000   1.0000   1.0000   1.0000   1.0000   1.0000   1.0000
 Cp, KJ/(KG)(K)    1.7995   1.7401   1.7401   1.6789   1.6515   1.6313   1.6151   1.6016
 GAMMAs            1.2640   1.2754   1.2754   1.2884   1.2946   1.2993   1.3032   1.3066
 SON VEL,M/SEC      702.4    662.2    662.2    618.2    597.4    581.5    568.5    557.4
 MACH NUMBER        0.000    1.000    1.000    1.507    1.718    1.874    2.001    2.109

 TRANSPORT PROPERTIES (GASES ONLY)
   CONDUCTIVITY IN UNITS OF MILLIWATTS/(CM)(K)

 VISC,MILLIPOISE  0.44453  0.40077  0.40077  0.35412  0.33263  0.31647  0.30337  0.29234

  WITH EQUILIBRIUM REACTIONS

 Cp, KJ/(KG)(K)    1.7995   1.7401   1.7401   1.6789   1.6515   1.6313   1.6151   1.6016
 CONDUCTIVITY      0.9509   0.8142   0.8142   0.6802   0.6225   0.5809   0.5481   0.5213
 PRANDTL NUMBER    0.8412   0.8565   0.8565   0.8740   0.8824   0.8888   0.8939   0.8981

  WITH FROZEN REACTIONS

 Cp, KJ/(KG)(K)    1.7994   1.7400   1.7400   1.6789   1.6515   1.6313   1.6151   1.6016
 CONDUCTIVITY      0.9509   0.8142   0.8142   0.6802   0.6225   0.5809   0.5481   0.5213
 PRANDTL NUMBER    0.8412   0.8565   0.8565   0.8740   0.8824   0.8888   0.8939   0.8981

 PERFORMANCE PARAMETERS

 Ae/At                      1.0000   1.0000   1.2000   1.4000   1.6000   1.8000   2.0000
 CSTAR, M/SEC                944.0    944.0    944.0    944.0    944.0    944.0    944.0
 CF                         0.7015   0.7015   0.9868   1.0871   1.1545   1.2050   1.2451
 Ivac, M/SEC                1181.4   1181.4   1250.0   1294.9   1328.7   1355.5   1377.7
 Isp, M/SEC                  662.2    662.2    931.5   1026.3   1089.9   1137.5   1175.4


 MOLE FRACTIONS

 H2O              0.70603  0.70603  0.70603  0.70603  0.70603  0.70603  0.70603  0.70603
 *O2              0.29397  0.29397  0.29397  0.29397  0.29397  0.29397  0.29397  0.29397

  * THERMODYNAMIC PROPERTIES FITTED TO 20000.K

    PRODUCTS WHICH WERE CONSIDERED BUT WHOSE MOLE FRACTIONS
    WERE LESS THAN 5.000000E-06 FOR ALL ASSIGNED CONDITIONS

 *H              HO2             *H2             H2O2            *O             
 *OH             O3              H2O(cr)         H2O(L)         

 NOTE. WEIGHT FRACTION OF FUEL IN TOTAL FUELS AND OF OXIDANT IN TOTAL OXIDANTS





           THEORETICAL ROCKET PERFORMANCE ASSUMING FROZEN COMPOSITION

 Pin =    40.0 PSIA
 CASE =                

             REACTANT                    WT FRACTION      ENERGY      TEMP
                                          (SEE NOTE)     KJ/KG-MOL      K  
 FUEL        H2O(L)                       1.0000000   -285841.390    298.000
 OXIDANT     H2O2(L)                      1.0000000   -187793.400    298.000

 O/F=    9.40000  %FUEL=  9.615385  R,EQ.RATIO= 0.545633  PHI,EQ.RATIO= 0.000000

                 CHAMBER   THROAT     EXIT     EXIT     EXIT     EXIT     EXIT     EXIT
 Pinf/P            1.0000   1.8183   1.8183   3.5576   4.9196   6.3243   7.7943   9.3333
 P, BAR            2.7579   1.5168   1.5168  0.77521  0.56059  0.43608  0.35384  0.29549
 T, K             1038.76   914.88   914.88   789.33   733.65   692.65   659.94   632.73
 RHO, KG/CU M    7.0653-1 4.4119-1 4.4119-1 2.6135-1 2.0334-1 1.6754-1 1.4268-1 1.2428-1
 H, KJ/KG        -6515.73 -6734.97 -6734.97 -6949.60 -7042.33 -7109.62 -7162.73 -7206.49
 U, KJ/KG        -6906.07 -7078.77 -7078.77 -7246.22 -7318.02 -7369.91 -7410.72 -7444.25
 G, KJ/KG        -17503.0 -16412.0 -16412.0 -15298.6 -14802.4 -14436.0 -14143.1 -13899.1
 S, KJ/(KG)(K)    10.5773  10.5773  10.5773  10.5773  10.5773  10.5773  10.5773  10.5773

 M, (1/n)          22.126   22.126   22.126   22.126   22.126   22.126   22.126   22.126
 Cp, KJ/(KG)(K)    1.7994   1.7400   1.7400   1.6789   1.6515   1.6313   1.6151   1.6016
 GAMMAs            1.2640   1.2754   1.2754   1.2884   1.2946   1.2993   1.3032   1.3066
 SON VEL,M/SEC      702.4    662.2    662.2    618.2    597.4    581.5    568.5    557.4
 MACH NUMBER        0.000    1.000    1.000    1.507    1.718    1.874    2.001    2.109

 TRANSPORT PROPERTIES (GASES ONLY)
   CONDUCTIVITY IN UNITS OF MILLIWATTS/(CM)(K)

 VISC,MILLIPOISE  0.44453  0.40077  0.40077  0.35412  0.33263  0.31647  0.30337  0.29234

  WITH FROZEN REACTIONS

 Cp, KJ/(KG)(K)    1.7994   1.7400   1.7400   1.6789   1.6515   1.6313   1.6151   1.6016
 CONDUCTIVITY      0.9509   0.8142   0.8142   0.6802   0.6225   0.5809   0.5481   0.5213
 PRANDTL NUMBER    0.8412   0.8565   0.8565   0.8740   0.8824   0.8888   0.8939   0.8981

 PERFORMANCE PARAMETERS

 Ae/At                      1.0000   1.0000   1.2000   1.4000   1.6000   1.8000   2.0000
 CSTAR, M/SEC                944.0    944.0    944.0    944.0    944.0    944.0    944.0
 CF                         0.7015   0.7015   0.9868   1.0871   1.1545   1.2050   1.2451
 Ivac, M/SEC                1181.4   1181.4   1249.9   1294.9   1328.7   1355.5   1377.7
 Isp, M/SEC                  662.2    662.2    931.5   1026.3   1089.9   1137.5   1175.4

 MOLE FRACTIONS

 H2O             0.70603   *O2             0.29397

  * THERMODYNAMIC PROPERTIES FITTED TO 20000.K

    PRODUCTS WHICH WERE CONSIDERED BUT WHOSE MOLE FRACTIONS
    WERE LESS THAN 5.000000E-06 FOR ALL ASSIGNED CONDITIONS

 *H              HO2             *H2             H2O2            *O             
 *OH             O3              H2O(cr)         H2O(L)         

 NOTE. WEIGHT FRACTION OF FUEL IN TOTAL FUELS AND OF OXIDANT IN TOTAL OXIDANTS






 POINT ITN      T            H           O 
   1    1    1038.761     -19.383     -13.329
 Pinf/Pt = 1.810520
   2    3     915.727     -21.303     -13.456
 Pinf/Pt = 1.818198
   2    2     914.891     -21.318     -13.457
 Pinf/Pt = 1.818250
   2    1     914.885     -21.318     -13.457
   3    1     914.885     -21.318     -13.457
   4    3     797.714     -23.700     -13.598
   4    2     789.189     -23.901     -13.609
   4    2     789.337     -23.897     -13.609
   5    3     742.421     -25.084     -13.674
   5    2     733.566     -25.325     -13.687
   5    2     733.654     -25.323     -13.687
   6    3     699.500     -26.310     -13.739
   6    2     692.617     -26.520     -13.750
   6    1     692.655     -26.519     -13.750
   7    3     664.113     -27.439     -13.797
   7    2     659.927     -27.581     -13.804
   7    1     659.938     -27.580     -13.804
   8    3     630.911     -28.614     -13.856
   8    2     632.730     -28.546     -13.852





              THEORETICAL ROCKET PERFORMANCE ASSUMING EQUILIBRIUM

           COMPOSITION DURING EXPANSION FROM INFINITE AREA COMBUSTOR

 Pin =    50.0 PSIA
 CASE =                

             REACTANT                    WT FRACTION      ENERGY      TEMP
                                          (SEE NOTE)     KJ/KG-MOL      K  
 FUEL        H2O(L)                       1.0000000   -285841.390    298.000
 OXIDANT     H2O2(L)                      1.0000000   -187793.400    298.000

 O/F=    9.40000  %FUEL=  9.615385  R,EQ.RATIO= 0.545633  PHI,EQ.RATIO= 0.000000

                 CHAMBER   THROAT     EXIT     EXIT     EXIT     EXIT     EXIT     EXIT
 Pinf/P            1.0000   1.8182   1.8182   3.5576   4.9196   6.3243   7.7943   9.3333
 P, BAR            3.4474   1.8960   1.8960  0.96902  0.70074  0.54510  0.44229  0.36936
 T, K             1038.76   914.88   914.88   789.34   733.65   692.65   659.94   632.73
 RHO, KG/CU M    8.8316-1 5.5148-1 5.5148-1 3.2669-1 2.5417-1 2.0942-1 1.7835-1 1.5535-1
 H, KJ/KG        -6515.73 -6734.97 -6734.97 -6949.60 -7042.33 -7109.62 -7162.73 -7206.49
 U, KJ/KG        -6906.07 -7078.77 -7078.77 -7246.22 -7318.02 -7369.91 -7410.72 -7444.25
 G, KJ/KG        -17415.9 -16335.3 -16335.3 -15232.5 -14740.9 -14378.0 -14087.8 -13846.0
 S, KJ/(KG)(K)    10.4935  10.4935  10.4935  10.4935  10.4935  10.4935  10.4935  10.4935

 M, (1/n)          22.126   22.126   22.126   22.126   22.126   22.126   22.126   22.126
 (dLV/dLP)t      -1.00000 -1.00000 -1.00000 -1.00000 -1.00000 -1.00000 -1.00000 -1.00000
 (dLV/dLT)p        1.0000   1.0000   1.0000   1.0000   1.0000   1.0000   1.0000   1.0000
 Cp, KJ/(KG)(K)    1.7995   1.7401   1.7401   1.6789   1.6515   1.6313   1.6151   1.6016
 GAMMAs            1.2640   1.2754   1.2754   1.2884   1.2946   1.2993   1.3032   1.3066
 SON VEL,M/SEC      702.4    662.2    662.2    618.2    597.4    581.5    568.5    557.4
 MACH NUMBER        0.000    1.000    1.000    1.507    1.718    1.874    2.001    2.109

 TRANSPORT PROPERTIES (GASES ONLY)
   CONDUCTIVITY IN UNITS OF MILLIWATTS/(CM)(K)

 VISC,MILLIPOISE  0.44453  0.40077  0.40077  0.35412  0.33263  0.31647  0.30337  0.29234

  WITH EQUILIBRIUM REACTIONS

 Cp, KJ/(KG)(K)    1.7995   1.7401   1.7401   1.6789   1.6515   1.6313   1.6151   1.6016
 CONDUCTIVITY      0.9509   0.8142   0.8142   0.6802   0.6225   0.5809   0.5481   0.5213
 PRANDTL NUMBER    0.8412   0.8565   0.8565   0.8740   0.8824   0.8888   0.8939   0.8981

  WITH FROZEN REACTIONS

 Cp, KJ/(KG)(K)    1.7994   1.7400   1.7400   1.6789   1.6515   1.6313   1.6151   1.6016
 CONDUCTIVITY      0.9509   0.8142   0.8142   0.6802   0.6225   0.5809   0.5481   0.5213
 PRANDTL NUMBER    0.8412   0.8565   0.8565   0.8740   0.8824   0.8888   0.8939   0.8981

 PERFORMANCE PARAMETERS

 Ae/At                      1.0000   1.0000   1.2000   1.4000   1.6000   1.8000   2.0000
 CSTAR, M/SEC                944.0    944.0    944.0    944.0    944.0    944.0    944.0
 CF                         0.7015   0.7015   0.9868   1.0871   1.1545   1.2050   1.2451
 Ivac, M/SEC                1181.4   1181.4   1250.0   1294.9   1328.7   1355.5   1377.7
 Isp, M/SEC                  662.2    662.2    931.5   1026.3   1089.9   1137.5   1175.4


 MOLE FRACTIONS

 H2O              0.70603  0.70603  0.70603  0.70603  0.70603  0.70603  0.70603  0.70603
 *O2              0.29397  0.29397  0.29397  0.29397  0.29397  0.29397  0.29397  0.29397

  * THERMODYNAMIC PROPERTIES FITTED TO 20000.K

    PRODUCTS WHICH WERE CONSIDERED BUT WHOSE MOLE FRACTIONS
    WERE LESS THAN 5.000000E-06 FOR ALL ASSIGNED CONDITIONS

 *H              HO2             *H2             H2O2            *O             
 *OH             O3              H2O(cr)         H2O(L)         

 NOTE. WEIGHT FRACTION OF FUEL IN TOTAL FUELS AND OF OXIDANT IN TOTAL OXIDANTS





           THEORETICAL ROCKET PERFORMANCE ASSUMING FROZEN COMPOSITION

 Pin =    50.0 PSIA
 CASE =                

             REACTANT                    WT FRACTION      ENERGY      TEMP
                                          (SEE NOTE)     KJ/KG-MOL      K  
 FUEL        H2O(L)                       1.0000000   -285841.390    298.000
 OXIDANT     H2O2(L)                      1.0000000   -187793.400    298.000

 O/F=    9.40000  %FUEL=  9.615385  R,EQ.RATIO= 0.545633  PHI,EQ.RATIO= 0.000000

                 CHAMBER   THROAT     EXIT     EXIT     EXIT     EXIT     EXIT     EXIT
 Pinf/P            1.0000   1.8183   1.8183   3.5576   4.9196   6.3243   7.7943   9.3333
 P, BAR            3.4474   1.8960   1.8960  0.96902  0.70074  0.54510  0.44229  0.36936
 T, K             1038.76   914.88   914.88   789.33   733.65   692.65   659.94   632.73
 RHO, KG/CU M    8.8316-1 5.5149-1 5.5149-1 3.2669-1 2.5417-1 2.0942-1 1.7835-1 1.5535-1
 H, KJ/KG        -6515.73 -6734.97 -6734.97 -6949.60 -7042.33 -7109.62 -7162.73 -7206.49
 U, KJ/KG        -6906.07 -7078.77 -7078.77 -7246.22 -7318.02 -7369.91 -7410.72 -7444.25
 G, KJ/KG        -17415.9 -16335.3 -16335.3 -15232.5 -14740.9 -14378.0 -14087.7 -13846.0
 S, KJ/(KG)(K)    10.4935  10.4935  10.4935  10.4935  10.4935  10.4935  10.4935  10.4935

 M, (1/n)          22.126   22.126   22.126   22.126   22.126   22.126   22.126   22.126
 Cp, KJ/(KG)(K)    1.7994   1.7400   1.7400   1.6789   1.6515   1.6313   1.6151   1.6016
 GAMMAs            1.2640   1.2754   1.2754   1.2884   1.2946   1.2993   1.3032   1.3066
 SON VEL,M/SEC      702.4    662.2    662.2    618.2    597.4    581.5    568.5    557.4
 MACH NUMBER        0.000    1.000    1.000    1.507    1.718    1.874    2.001    2.109

 TRANSPORT PROPERTIES (GASES ONLY)
   CONDUCTIVITY IN UNITS OF MILLIWATTS/(CM)(K)

 VISC,MILLIPOISE  0.44453  0.40077  0.40077  0.35412  0.33263  0.31647  0.30337  0.29234

  WITH FROZEN REACTIONS

 Cp, KJ/(KG)(K)    1.7994   1.7400   1.7400   1.6789   1.6515   1.6313   1.6151   1.6016
 CONDUCTIVITY      0.9509   0.8142   0.8142   0.6802   0.6225   0.5809   0.5481   0.5213
 PRANDTL NUMBER    0.8412   0.8565   0.8565   0.8740   0.8824   0.8888   0.8939   0.8981

 PERFORMANCE PARAMETERS

 Ae/At                      1.0000   1.0000   1.2000   1.4000   1.6000   1.8000   2.0000
 CSTAR, M/SEC                944.0    944.0    944.0    944.0    944.0    944.0    944.0
 CF                         0.7015   0.7015   0.9868   1.0871   1.1545   1.2050   1.2451
 Ivac, M/SEC                1181.4   1181.4   1249.9   1294.9   1328.7   1355.5   1377.7
 Isp, M/SEC                  662.2    662.2    931.5   1026.3   1089.9   1137.5   1175.4

 MOLE FRACTIONS

 H2O             0.70603   *O2             0.29397

  * THERMODYNAMIC PROPERTIES FITTED TO 20000.K

    PRODUCTS WHICH WERE CONSIDERED BUT WHOSE MOLE FRACTIONS
    WERE LESS THAN 5.000000E-06 FOR ALL ASSIGNED CONDITIONS

 *H              HO2             *H2             H2O2            *O             
 *OH             O3              H2O(cr)         H2O(L)         

 NOTE. WEIGHT FRACTION OF FUEL IN TOTAL FUELS AND OF OXIDANT IN TOTAL OXIDANTS






 O/F =   9.600000

                       EFFECTIVE FUEL     EFFECTIVE OXIDANT        MIXTURE
 ENTHALPY                  h(2)/R              h(1)/R               h0/R
 (KG-MOL)(K)/KG       -0.19083035E+04     -0.66401406E+03     -0.78139985E+03

 KG-FORM.WT./KG             bi(2)               bi(1)               b0i
  *H                   0.11101687E+00      0.58798142E-01      0.63724438E-01
  *O                   0.55508435E-01      0.58798142E-01      0.58487793E-01

 POINT ITN      T            H           O 
   1    2    1043.195     -19.557     -13.791
 Pinf/Pt = 1.810307
   2    3     919.779     -21.467     -13.918
 Pinf/Pt = 1.817980
   2    2     918.940     -21.482     -13.919
 Pinf/Pt = 1.818033
   2    1     918.935     -21.482     -13.919
   3    1     918.935     -21.482     -13.919
   4    3     801.354     -23.851     -14.060
   4    2     792.823     -24.050     -14.072
   4    2     792.971     -24.046     -14.071
   5    3     745.859     -25.228     -14.137
   5    2     737.005     -25.466     -14.149
   5    2     737.093     -25.464     -14.149
   6    3     702.778     -26.446     -14.201
   6    2     695.909     -26.654     -14.212
   6    1     695.947     -26.653     -14.212
   7    3     667.256     -27.569     -14.259
   7    2     663.099     -27.709     -14.266
   8    3     633.960     -28.736     -14.317
   8    2     635.799     -28.668     -14.314





              THEORETICAL ROCKET PERFORMANCE ASSUMING EQUILIBRIUM

           COMPOSITION DURING EXPANSION FROM INFINITE AREA COMBUSTOR

 Pin =    20.0 PSIA
 CASE =                

             REACTANT                    WT FRACTION      ENERGY      TEMP
                                          (SEE NOTE)     KJ/KG-MOL      K  
 FUEL        H2O(L)                       1.0000000   -285841.390    298.000
 OXIDANT     H2O2(L)                      1.0000000   -187793.400    298.000

 O/F=    9.60000  %FUEL=  9.433962  R,EQ.RATIO= 0.544767  PHI,EQ.RATIO= 0.000000

                 CHAMBER   THROAT     EXIT     EXIT     EXIT     EXIT     EXIT     EXIT
 Pinf/P            1.0000   1.8180   1.8180   3.5567   4.9181   6.3220   7.7916   9.3291
 P, BAR            1.3789  0.75848  0.75848  0.38771  0.28038  0.21812  0.17698  0.14781
 T, K             1043.20   918.93   918.93   792.97   737.09   695.95   663.10   635.80
 RHO, KG/CU M    3.5192-1 2.1975-1 2.1975-1 1.3017-1 1.0127-1 8.3442-2 7.1057-2 6.1895-2
 H, KJ/KG        -6496.96 -6717.01 -6717.01 -6932.47 -7025.56 -7093.13 -7146.47 -7190.40
 U, KJ/KG        -6888.79 -7062.17 -7062.17 -7230.31 -7302.42 -7354.53 -7395.54 -7429.21
 G, KJ/KG        -17806.3 -16679.3 -16679.3 -15529.1 -15016.5 -14637.9 -14335.2 -14083.1
 S, KJ/(KG)(K)    10.8411  10.8411  10.8411  10.8411  10.8411  10.8411  10.8411  10.8411

 M, (1/n)          22.136   22.136   22.136   22.136   22.136   22.136   22.136   22.136
 (dLV/dLP)t      -1.00000 -1.00000 -1.00000 -1.00000 -1.00000 -1.00000 -1.00000 -1.00000
 (dLV/dLT)p        1.0000   1.0000   1.0000   1.0000   1.0000   1.0000   1.0000   1.0000
 Cp, KJ/(KG)(K)    1.8005   1.7410   1.7410   1.6798   1.6523   1.6320   1.6157   1.6022
 GAMMAs            1.2636   1.2751   1.2751   1.2880   1.2942   1.2990   1.3029   1.3062
 SON VEL,M/SEC      703.6    663.4    663.4    619.4    598.6    582.7    569.7    558.5
 MACH NUMBER        0.000    1.000    1.000    1.507    1.718    1.874    2.001    2.109

 TRANSPORT PROPERTIES (GASES ONLY)
   CONDUCTIVITY IN UNITS OF MILLIWATTS/(CM)(K)

 VISC,MILLIPOISE  0.44617  0.40235  0.40235  0.35563  0.33410  0.31790  0.30478  0.29372

  WITH EQUILIBRIUM REACTIONS

 Cp, KJ/(KG)(K)    1.8005   1.7410   1.7410   1.6798   1.6523   1.6320   1.6157   1.6022
 CONDUCTIVITY      0.9557   0.8185   0.8185   0.6840   0.6260   0.5842   0.5513   0.5244
 PRANDTL NUMBER    0.8406   0.8558   0.8558   0.8734   0.8818   0.8881   0.8932   0.8975

  WITH FROZEN REACTIONS

 Cp, KJ/(KG)(K)    1.8004   1.7410   1.7410   1.6798   1.6523   1.6320   1.6157   1.6022
 CONDUCTIVITY      0.9556   0.8185   0.8185   0.6840   0.6260   0.5842   0.5513   0.5244
 PRANDTL NUMBER    0.8406   0.8558   0.8558   0.8734   0.8818   0.8881   0.8932   0.8975

 PERFORMANCE PARAMETERS

 Ae/At                      1.0000   1.0000   1.2000   1.4000   1.6000   1.8000   2.0000
 CSTAR, M/SEC                945.9    945.9    945.9    945.9    945.9    945.9    945.9
 CF                         0.7014   0.7014   0.9867   1.0870   1.1544   1.2049   1.2450
 Ivac, M/SEC                1183.7   1183.7   1252.4   1297.5   1331.3   1358.3   1380.4
 Isp, M/SEC                  663.4    663.4    933.3   1028.2   1091.9   1139.7   1177.7


 MOLE FRACTIONS

 H2O              0.70531  0.70531  0.70531  0.70531  0.70531  0.70531  0.70531  0.70531
 *O2              0.29469  0.29469  0.29469  0.29469  0.29469  0.29469  0.29469  0.29469

  * THERMODYNAMIC PROPERTIES FITTED TO 20000.K

    PRODUCTS WHICH WERE CONSIDERED BUT WHOSE MOLE FRACTIONS
    WERE LESS THAN 5.000000E-06 FOR ALL ASSIGNED CONDITIONS

 *H              HO2             *H2             H2O2            *O             
 *OH             O3              H2O(cr)         H2O(L)         

 NOTE. WEIGHT FRACTION OF FUEL IN TOTAL FUELS AND OF OXIDANT IN TOTAL OXIDANTS





           THEORETICAL ROCKET PERFORMANCE ASSUMING FROZEN COMPOSITION

 Pin =    20.0 PSIA
 CASE =                

             REACTANT                    WT FRACTION      ENERGY      TEMP
                                          (SEE NOTE)     KJ/KG-MOL      K  
 FUEL        H2O(L)                       1.0000000   -285841.390    298.000
 OXIDANT     H2O2(L)                      1.0000000   -187793.400    298.000

 O/F=    9.60000  %FUEL=  9.433962  R,EQ.RATIO= 0.544767  PHI,EQ.RATIO= 0.000000

                 CHAMBER   THROAT     EXIT     EXIT     EXIT     EXIT     EXIT     EXIT
 Pinf/P            1.0000   1.8180   1.8180   3.5567   4.9181   6.3220   7.7916   9.3291
 P, BAR            1.3789  0.75848  0.75848  0.38770  0.28038  0.21812  0.17698  0.14781
 T, K             1043.20   918.93   918.93   792.97   737.09   695.94   663.10   635.80
 RHO, KG/CU M    3.5192-1 2.1975-1 2.1975-1 1.3017-1 1.0127-1 8.3442-2 7.1057-2 6.1895-2
 H, KJ/KG        -6496.96 -6717.01 -6717.01 -6932.47 -7025.56 -7093.13 -7146.47 -7190.39
 U, KJ/KG        -6888.79 -7062.17 -7062.17 -7230.31 -7302.42 -7354.53 -7395.53 -7429.20
 G, KJ/KG        -17806.3 -16679.2 -16679.2 -15529.1 -15016.4 -14637.9 -14335.2 -14083.1
 S, KJ/(KG)(K)    10.8411  10.8411  10.8411  10.8411  10.8411  10.8411  10.8411  10.8411

 M, (1/n)          22.136   22.136   22.136   22.136   22.136   22.136   22.136   22.136
 Cp, KJ/(KG)(K)    1.8004   1.7410   1.7410   1.6798   1.6523   1.6320   1.6157   1.6022
 GAMMAs            1.2636   1.2751   1.2751   1.2880   1.2942   1.2990   1.3029   1.3062
 SON VEL,M/SEC      703.7    663.4    663.4    619.4    598.6    582.7    569.6    558.5
 MACH NUMBER        0.000    1.000    1.000    1.507    1.718    1.874    2.001    2.109

 TRANSPORT PROPERTIES (GASES ONLY)
   CONDUCTIVITY IN UNITS OF MILLIWATTS/(CM)(K)

 VISC,MILLIPOISE  0.44617  0.40235  0.40235  0.35563  0.33409  0.31790  0.30477  0.29372

  WITH FROZEN REACTIONS

 Cp, KJ/(KG)(K)    1.8004   1.7410   1.7410   1.6798   1.6523   1.6320   1.6157   1.6022
 CONDUCTIVITY      0.9556   0.8185   0.8185   0.6840   0.6260   0.5842   0.5513   0.5244
 PRANDTL NUMBER    0.8406   0.8558   0.8558   0.8734   0.8818   0.8881   0.8932   0.8975

 PERFORMANCE PARAMETERS

 Ae/At                      1.0000   1.0000   1.2000   1.4000   1.6000   1.8000   2.0000
 CSTAR, M/SEC                945.9    945.9    945.9    945.9    945.9    945.9    945.9
 CF                         0.7014   0.7014   0.9867   1.0870   1.1544   1.2049   1.2450
 Ivac, M/SEC                1183.7   1183.7   1252.4   1297.5   1331.3   1358.3   1380.4
 Isp, M/SEC                  663.4    663.4    933.3   1028.2   1091.9   1139.7   1177.7

 MOLE FRACTIONS

 H2O             0.70531   *O2             0.29469

  * THERMODYNAMIC PROPERTIES FITTED TO 20000.K

    PRODUCTS WHICH WERE CONSIDERED BUT WHOSE MOLE FRACTIONS
    WERE LESS THAN 5.000000E-06 FOR ALL ASSIGNED CONDITIONS

 *H              HO2             *H2             H2O2            *O             
 *OH             O3              H2O(cr)         H2O(L)         

 NOTE. WEIGHT FRACTION OF FUEL IN TOTAL FUELS AND OF OXIDANT IN TOTAL OXIDANTS






 POINT ITN      T            H           O 
   1    1    1043.196     -19.456     -13.589
 Pinf/Pt = 1.810308
   2    3     919.779     -21.365     -13.715
 Pinf/Pt = 1.817981
   2    2     918.941     -21.380     -13.716
 Pinf/Pt = 1.818033
   2    1     918.935     -21.380     -13.716
   3    1     918.935     -21.380     -13.716
   4    3     801.354     -23.749     -13.858
   4    2     792.823     -23.948     -13.869
   4    2     792.971     -23.945     -13.869
   5    3     745.859     -25.126     -13.934
   5    2     737.005     -25.365     -13.947
   5    2     737.093     -25.363     -13.947
   6    3     702.778     -26.345     -13.998
   6    2     695.909     -26.553     -14.009
   6    1     695.947     -26.552     -14.009
   7    3     667.256     -27.468     -14.056
   7    2     663.099     -27.607     -14.063
   8    3     633.960     -28.635     -14.114
   8    2     635.799     -28.567     -14.111





              THEORETICAL ROCKET PERFORMANCE ASSUMING EQUILIBRIUM

           COMPOSITION DURING EXPANSION FROM INFINITE AREA COMBUSTOR

 Pin =    30.0 PSIA
 CASE =                

             REACTANT                    WT FRACTION      ENERGY      TEMP
                                          (SEE NOTE)     KJ/KG-MOL      K  
 FUEL        H2O(L)                       1.0000000   -285841.390    298.000
 OXIDANT     H2O2(L)                      1.0000000   -187793.400    298.000

 O/F=    9.60000  %FUEL=  9.433962  R,EQ.RATIO= 0.544767  PHI,EQ.RATIO= 0.000000

                 CHAMBER   THROAT     EXIT     EXIT     EXIT     EXIT     EXIT     EXIT
 Pinf/P            1.0000   1.8180   1.8180   3.5567   4.9181   6.3220   7.7916   9.3291
 P, BAR            2.0684   1.1377   1.1377  0.58156  0.42058  0.32718  0.26547  0.22172
 T, K             1043.20   918.93   918.93   792.97   737.09   695.95   663.10   635.80
 RHO, KG/CU M    5.2788-1 3.2962-1 3.2962-1 1.9525-1 1.5191-1 1.2516-1 1.0659-1 9.2842-2
 H, KJ/KG        -6496.96 -6717.01 -6717.01 -6932.47 -7025.56 -7093.13 -7146.47 -7190.40
 U, KJ/KG        -6888.79 -7062.17 -7062.17 -7230.31 -7302.42 -7354.53 -7395.54 -7429.21
 G, KJ/KG        -17647.5 -16539.3 -16539.3 -15408.4 -14904.2 -14532.0 -14234.2 -13986.3
 S, KJ/(KG)(K)    10.6888  10.6888  10.6888  10.6888  10.6888  10.6888  10.6888  10.6888

 M, (1/n)          22.136   22.136   22.136   22.136   22.136   22.136   22.136   22.136
 (dLV/dLP)t      -1.00000 -1.00000 -1.00000 -1.00000 -1.00000 -1.00000 -1.00000 -1.00000
 (dLV/dLT)p        1.0000   1.0000   1.0000   1.0000   1.0000   1.0000   1.0000   1.0000
 Cp, KJ/(KG)(K)    1.8005   1.7410   1.7410   1.6798   1.6523   1.6320   1.6157   1.6022
 GAMMAs            1.2636   1.2751   1.2751   1.2880   1.2942   1.2990   1.3029   1.3062
 SON VEL,M/SEC      703.6    663.4    663.4    619.4    598.6    582.7    569.7    558.5
 MACH NUMBER        0.000    1.000    1.000    1.507    1.718    1.874    2.001    2.109

 TRANSPORT PROPERTIES (GASES ONLY)
   CONDUCTIVITY IN UNITS OF MILLIWATTS/(CM)(K)

 VISC,MILLIPOISE  0.44617  0.40235  0.40235  0.35563  0.33410  0.31790  0.30478  0.29372

  WITH EQUILIBRIUM REACTIONS

 Cp, KJ/(KG)(K)    1.8005   1.7410   1.7410   1.6798   1.6523   1.6320   1.6157   1.6022
 CONDUCTIVITY      0.9557   0.8185   0.8185   0.6840   0.6260   0.5842   0.5513   0.5244
 PRANDTL NUMBER    0.8406   0.8558   0.8558   0.8734   0.8818   0.8881   0.8932   0.8975

  WITH FROZEN REACTIONS

 Cp, KJ/(KG)(K)    1.8004   1.7410   1.7410   1.6798   1.6523   1.6320   1.6157   1.6022
 CONDUCTIVITY      0.9556   0.8185   0.8185   0.6840   0.6260   0.5842   0.5513   0.5244
 PRANDTL NUMBER    0.8406   0.8558   0.8558   0.8734   0.8818   0.8881   0.8932   0.8975

 PERFORMANCE PARAMETERS

 Ae/At                      1.0000   1.0000   1.2000   1.4000   1.6000   1.8000   2.0000
 CSTAR, M/SEC                945.9    945.9    945.9    945.9    945.9    945.9    945.9
 CF                         0.7014   0.7014   0.9867   1.0870   1.1544   1.2049   1.2450
 Ivac, M/SEC                1183.7   1183.7   1252.4   1297.5   1331.3   1358.3   1380.4
 Isp, M/SEC                  663.4    663.4    933.3   1028.2   1091.9   1139.7   1177.7


 MOLE FRACTIONS

 H2O              0.70531  0.70531  0.70531  0.70531  0.70531  0.70531  0.70531  0.70531
 *O2              0.29469  0.29469  0.29469  0.29469  0.29469  0.29469  0.29469  0.29469

  * THERMODYNAMIC PROPERTIES FITTED TO 20000.K

    PRODUCTS WHICH WERE CONSIDERED BUT WHOSE MOLE FRACTIONS
    WERE LESS THAN 5.000000E-06 FOR ALL ASSIGNED CONDITIONS

[...]
 CSTAR, M/SEC                949.5    949.5    949.5    949.5    949.5    949.5    949.5
 CF                         0.7011   0.7011   0.9864   1.0868   1.1542   1.2048   1.2449
 Ivac, M/SEC                1188.1   1188.1   1257.1   1302.3   1336.3   1363.4   1385.7
 Isp, M/SEC                  665.7    665.7    936.6   1031.9   1095.9   1143.9   1181.9


 MOLE FRACTIONS

 H2O              0.70393  0.70393  0.70393  0.70393  0.70393  0.70393  0.70393  0.70393
 *O2              0.29607  0.29607  0.29607  0.29607  0.29607  0.29607  0.29607  0.29607

  * THERMODYNAMIC PROPERTIES FITTED TO 20000.K

    PRODUCTS WHICH WERE CONSIDERED BUT WHOSE MOLE FRACTIONS
    WERE LESS THAN 5.000000E-06 FOR ALL ASSIGNED CONDITIONS

 *H              HO2             *H2             H2O2            *O             
 *OH             O3              H2O(cr)         H2O(L)         

 NOTE. WEIGHT FRACTION OF FUEL IN TOTAL FUELS AND OF OXIDANT IN TOTAL OXIDANTS





           THEORETICAL ROCKET PERFORMANCE ASSUMING FROZEN COMPOSITION

 Pin =    30.0 PSIA
 CASE =                

             REACTANT                    WT FRACTION      ENERGY      TEMP
                                          (SEE NOTE)     KJ/KG-MOL      K  
 FUEL        H2O(L)                       1.0000000   -285841.390    298.000
 OXIDANT     H2O2(L)                      1.0000000   -187793.400    298.000

 O/F=   10.00000  %FUEL=  9.090909  R,EQ.RATIO= 0.543131  PHI,EQ.RATIO= 0.000000

                 CHAMBER   THROAT     EXIT     EXIT     EXIT     EXIT     EXIT     EXIT
 Pinf/P            1.0000   1.8176   1.8176   3.5550   4.9151   6.3176   7.7856   9.3213
 P, BAR            2.0684   1.1380   1.1380  0.58184  0.42083  0.32741  0.26567  0.22190
 T, K             1051.58   926.59   926.59   799.84   743.60   702.17   669.10   641.61
 RHO, KG/CU M    5.2413-1 3.2726-1 3.2726-1 1.9384-1 1.5080-1 1.2425-1 1.0580-1 9.2159-2
 H, KJ/KG        -6461.47 -6683.04 -6683.04 -6900.06 -6993.85 -7061.94 -7115.69 -7159.96
 U, KJ/KG        -6856.11 -7030.78 -7030.78 -7200.23 -7272.91 -7325.45 -7366.79 -7400.74
 G, KJ/KG        -17708.2 -16593.0 -16593.0 -15454.4 -14946.7 -14571.7 -14271.7 -14022.0
 S, KJ/(KG)(K)    10.6950  10.6950  10.6950  10.6950  10.6950  10.6950  10.6950  10.6950

 M, (1/n)          22.155   22.155   22.155   22.155   22.155   22.155   22.155   22.155
 Cp, KJ/(KG)(K)    1.8024   1.7428   1.7428   1.6814   1.6538   1.6334   1.6170   1.6034
 GAMMAs            1.2630   1.2744   1.2744   1.2873   1.2935   1.2983   1.3022   1.3056
 SON VEL,M/SEC      706.0    665.7    665.7    621.6    600.8    584.9    571.8    560.7
 MACH NUMBER        0.000    1.000    1.000    1.507    1.717    1.874    2.000    2.108

 TRANSPORT PROPERTIES (GASES ONLY)
   CONDUCTIVITY IN UNITS OF MILLIWATTS/(CM)(K)

 VISC,MILLIPOISE  0.44925  0.40533  0.40533  0.35847  0.33686  0.32061  0.30743  0.29633

  WITH FROZEN REACTIONS

 Cp, KJ/(KG)(K)    1.8024   1.7428   1.7428   1.6814   1.6538   1.6334   1.6170   1.6034
 CONDUCTIVITY      0.9646   0.8266   0.8266   0.6911   0.6327   0.5905   0.5573   0.5301
 PRANDTL NUMBER    0.8394   0.8546   0.8546   0.8721   0.8805   0.8869   0.8920   0.8963

 PERFORMANCE PARAMETERS

 Ae/At                      1.0000   1.0000   1.2000   1.4000   1.6000   1.8000   2.0000
 CSTAR, M/SEC                949.4    949.4    949.4    949.4    949.4    949.4    949.4
 CF                         0.7011   0.7011   0.9865   1.0868   1.1542   1.2048   1.2449
 Ivac, M/SEC                1188.1   1188.1   1257.1   1302.3   1336.3   1363.4   1385.7
 Isp, M/SEC                  665.7    665.7    936.6   1031.9   1095.9   1143.9   1181.9

 MOLE FRACTIONS

 H2O             0.70393   *O2             0.29607

  * THERMODYNAMIC PROPERTIES FITTED TO 20000.K

    PRODUCTS WHICH WERE CONSIDERED BUT WHOSE MOLE FRACTIONS
    WERE LESS THAN 5.000000E-06 FOR ALL ASSIGNED CONDITIONS

 *H              HO2             *H2             H2O2            *O             
 *OH             O3              H2O(cr)         H2O(L)         

 NOTE. WEIGHT FRACTION OF FUEL IN TOTAL FUELS AND OF OXIDANT IN TOTAL OXIDANTS






 POINT ITN      T            H           O 
   1    1    1051.582     -19.282     -13.454
 Pinf/Pt = 1.809913
   2    3     927.443     -21.172     -13.580
 Pinf/Pt = 1.817572
   2    2     926.600     -21.186     -13.581
 Pinf/Pt = 1.817625
   2    1     926.594     -21.187     -13.581
   3    1     926.594     -21.187     -13.581
   4    3     808.240     -23.531     -13.722
   4    2     799.698     -23.727     -13.733
   4    2     799.845     -23.724     -13.732
   5    3     752.364     -24.894     -13.797
   5    2     743.514     -25.129     -13.810
   5    2     743.601     -25.126     -13.810
   6    3     708.980     -26.100     -13.862
   6    2     702.140     -26.304     -13.872
   6    1     702.176     -26.303     -13.872
   7    3     673.203     -27.211     -13.919
   7    2     669.102     -27.346     -13.926
   8    3     639.730     -28.363     -13.977
   8    2     641.608     -28.296     -13.973





              THEORETICAL ROCKET PERFORMANCE ASSUMING EQUILIBRIUM

           COMPOSITION DURING EXPANSION FROM INFINITE AREA COMBUSTOR

 Pin =    40.0 PSIA
 CASE =                

             REACTANT                    WT FRACTION      ENERGY      TEMP
                                          (SEE NOTE)     KJ/KG-MOL      K  
 FUEL        H2O(L)                       1.0000000   -285841.390    298.000
 OXIDANT     H2O2(L)                      1.0000000   -187793.400    298.000

 O/F=   10.00000  %FUEL=  9.090909  R,EQ.RATIO= 0.543131  PHI,EQ.RATIO= 0.000000

                 CHAMBER   THROAT     EXIT     EXIT     EXIT     EXIT     EXIT     EXIT
 Pinf/P            1.0000   1.8176   1.8176   3.5550   4.9151   6.3176   7.7856   9.3213
 P, BAR            2.7579   1.5173   1.5173  0.77578  0.56111  0.43654  0.35423  0.29587
 T, K             1051.58   926.59   926.59   799.85   743.60   702.18   669.10   641.61
 RHO, KG/CU M    6.9884-1 4.3634-1 4.3634-1 2.5845-1 2.0107-1 1.6566-1 1.4107-1 1.2288-1
 H, KJ/KG        -6461.47 -6683.04 -6683.04 -6900.06 -6993.85 -7061.94 -7115.69 -7159.96
 U, KJ/KG        -6856.11 -7030.78 -7030.78 -7200.23 -7272.91 -7325.45 -7366.79 -7400.75
 G, KJ/KG        -17594.7 -16493.0 -16493.0 -15368.1 -14866.4 -14495.9 -14199.5 -13952.7
 S, KJ/(KG)(K)    10.5871  10.5871  10.5871  10.5871  10.5871  10.5871  10.5871  10.5871

 M, (1/n)          22.155   22.155   22.155   22.155   22.155   22.155   22.155   22.155
 (dLV/dLP)t      -1.00000 -1.00000 -1.00000 -1.00000 -1.00000 -1.00000 -1.00000 -1.00000
 (dLV/dLT)p        1.0000   1.0000   1.0000   1.0000   1.0000   1.0000   1.0000   1.0000
 Cp, KJ/(KG)(K)    1.8025   1.7429   1.7429   1.6814   1.6538   1.6334   1.6170   1.6034
 GAMMAs            1.2630   1.2744   1.2744   1.2873   1.2935   1.2983   1.3022   1.3056
 SON VEL,M/SEC      706.0    665.7    665.7    621.6    600.8    584.9    571.8    560.7
 MACH NUMBER        0.000    1.000    1.000    1.507    1.717    1.874    2.000    2.108

 TRANSPORT PROPERTIES (GASES ONLY)
   CONDUCTIVITY IN UNITS OF MILLIWATTS/(CM)(K)

 VISC,MILLIPOISE  0.44925  0.40533  0.40533  0.35847  0.33687  0.32061  0.30743  0.29633

  WITH EQUILIBRIUM REACTIONS

 Cp, KJ/(KG)(K)    1.8025   1.7429   1.7429   1.6814   1.6538   1.6334   1.6170   1.6034
 CONDUCTIVITY      0.9647   0.8266   0.8266   0.6911   0.6327   0.5905   0.5573   0.5301
 PRANDTL NUMBER    0.8394   0.8546   0.8546   0.8721   0.8805   0.8869   0.8920   0.8963

  WITH FROZEN REACTIONS

 Cp, KJ/(KG)(K)    1.8024   1.7428   1.7428   1.6814   1.6538   1.6334   1.6170   1.6034
 CONDUCTIVITY      0.9646   0.8266   0.8266   0.6911   0.6327   0.5905   0.5573   0.5301
 PRANDTL NUMBER    0.8394   0.8546   0.8546   0.8721   0.8805   0.8869   0.8920   0.8963

 PERFORMANCE PARAMETERS

 Ae/At                      1.0000   1.0000   1.2000   1.4000   1.6000   1.8000   2.0000
 CSTAR, M/SEC                949.5    949.5    949.5    949.5    949.5    949.5    949.5
 CF                         0.7011   0.7011   0.9864   1.0868   1.1542   1.2048   1.2449
 Ivac, M/SEC                1188.1   1188.1   1257.1   1302.3   1336.3   1363.4   1385.7
 Isp, M/SEC                  665.7    665.7    936.6   1031.9   1095.9   1143.9   1181.9


 MOLE FRACTIONS

 H2O              0.70393  0.70393  0.70393  0.70393  0.70393  0.70393  0.70393  0.70393
 *O2              0.29607  0.29607  0.29607  0.29607  0.29607  0.29607  0.29607  0.29607

  * THERMODYNAMIC PROPERTIES FITTED TO 20000.K

    PRODUCTS WHICH WERE CONSIDERED BUT WHOSE MOLE FRACTIONS
    WERE LESS THAN 5.000000E-06 FOR ALL ASSIGNED CONDITIONS

 *H              HO2             *H2             H2O2            *O             
 *OH             O3              H2O(cr)         H2O(L)         

 NOTE. WEIGHT FRACTION OF FUEL IN TOTAL FUELS AND OF OXIDANT IN TOTAL OXIDANTS





           THEORETICAL ROCKET PERFORMANCE ASSUMING FROZEN COMPOSITION

 Pin =    40.0 PSIA
 CASE =                

             REACTANT                    WT FRACTION      ENERGY      TEMP
                                          (SEE NOTE)     KJ/KG-MOL      K  
 FUEL        H2O(L)                       1.0000000   -285841.390    298.000
 OXIDANT     H2O2(L)                      1.0000000   -187793.400    298.000

 O/F=   10.00000  %FUEL=  9.090909  R,EQ.RATIO= 0.543131  PHI,EQ.RATIO= 0.000000

                 CHAMBER   THROAT     EXIT     EXIT     EXIT     EXIT     EXIT     EXIT
 Pinf/P            1.0000   1.8176   1.8176   3.5550   4.9151   6.3176   7.7856   9.3213
 P, BAR            2.7579   1.5173   1.5173  0.77578  0.56111  0.43654  0.35423  0.29587
 T, K             1051.58   926.59   926.59   799.84   743.60   702.17   669.10   641.61
 RHO, KG/CU M    6.9884-1 4.3634-1 4.3634-1 2.5845-1 2.0107-1 1.6566-1 1.4107-1 1.2288-1
 H, KJ/KG        -6461.47 -6683.04 -6683.04 -6900.06 -6993.85 -7061.94 -7115.69 -7159.96
 U, KJ/KG        -6856.11 -7030.78 -7030.78 -7200.23 -7272.91 -7325.45 -7366.79 -7400.74
 G, KJ/KG        -17594.7 -16492.9 -16492.9 -15368.1 -14866.4 -14495.9 -14199.5 -13952.7
 S, KJ/(KG)(K)    10.5871  10.5871  10.5871  10.5871  10.5871  10.5871  10.5871  10.5871

 M, (1/n)          22.155   22.155   22.155   22.155   22.155   22.155   22.155   22.155
 Cp, KJ/(KG)(K)    1.8024   1.7428   1.7428   1.6814   1.6538   1.6334   1.6170   1.6034
 GAMMAs            1.2630   1.2744   1.2744   1.2873   1.2935   1.2983   1.3022   1.3056
 SON VEL,M/SEC      706.0    665.7    665.7    621.6    600.8    584.9    571.8    560.7
 MACH NUMBER        0.000    1.000    1.000    1.507    1.717    1.874    2.000    2.108

 TRANSPORT PROPERTIES (GASES ONLY)
   CONDUCTIVITY IN UNITS OF MILLIWATTS/(CM)(K)

 VISC,MILLIPOISE  0.44925  0.40533  0.40533  0.35847  0.33686  0.32061  0.30743  0.29633

  WITH FROZEN REACTIONS

 Cp, KJ/(KG)(K)    1.8024   1.7428   1.7428   1.6814   1.6538   1.6334   1.6170   1.6034
 CONDUCTIVITY      0.9646   0.8266   0.8266   0.6911   0.6327   0.5905   0.5573   0.5301
 PRANDTL NUMBER    0.8394   0.8546   0.8546   0.8721   0.8805   0.8869   0.8920   0.8963

 PERFORMANCE PARAMETERS

 Ae/At                      1.0000   1.0000   1.2000   1.4000   1.6000   1.8000   2.0000
 CSTAR, M/SEC                949.4    949.4    949.4    949.4    949.4    949.4    949.4
 CF                         0.7011   0.7011   0.9865   1.0868   1.1542   1.2048   1.2449
 Ivac, M/SEC                1188.1   1188.1   1257.1   1302.3   1336.3   1363.4   1385.7
 Isp, M/SEC                  665.7    665.7    936.6   1031.9   1095.9   1143.9   1181.9

 MOLE FRACTIONS

 H2O             0.70393   *O2             0.29607

  * THERMODYNAMIC PROPERTIES FITTED TO 20000.K

    PRODUCTS WHICH WERE CONSIDERED BUT WHOSE MOLE FRACTIONS
    WERE LESS THAN 5.000000E-06 FOR ALL ASSIGNED CONDITIONS

 *H              HO2             *H2             H2O2            *O             
 *OH             O3              H2O(cr)         H2O(L)         

 NOTE. WEIGHT FRACTION OF FUEL IN TOTAL FUELS AND OF OXIDANT IN TOTAL OXIDANTS






 POINT ITN      T            H           O 
   1    1    1051.582     -19.227     -13.342
 Pinf/Pt = 1.809914
   2    3     927.443     -21.116     -13.468
 Pinf/Pt = 1.817572
   2    2     926.600     -21.131     -13.469
 Pinf/Pt = 1.817624
   2    1     926.594     -21.131     -13.469
   3    1     926.594     -21.131     -13.469
   4    3     808.240     -23.476     -13.610
   4    2     799.698     -23.672     -13.621
   4    2     799.845     -23.668     -13.621
   5    3     752.364     -24.838     -13.686
   5    2     743.514     -25.073     -13.698
   5    2     743.601     -25.071     -13.698
   6    3     708.980     -26.044     -13.750
   6    2     702.140     -26.248     -13.761
   6    1     702.176     -26.247     -13.761
   7    3     673.203     -27.156     -13.807
   7    2     669.102     -27.291     -13.814
   8    3     639.730     -28.308     -13.865
   8    2     641.608     -28.240     -13.862





              THEORETICAL ROCKET PERFORMANCE ASSUMING EQUILIBRIUM

           COMPOSITION DURING EXPANSION FROM INFINITE AREA COMBUSTOR

 Pin =    50.0 PSIA
 CASE =                

             REACTANT                    WT FRACTION      ENERGY      TEMP
                                          (SEE NOTE)     KJ/KG-MOL      K  
 FUEL        H2O(L)                       1.0000000   -285841.390    298.000
 OXIDANT     H2O2(L)                      1.0000000   -187793.400    298.000

 O/F=   10.00000  %FUEL=  9.090909  R,EQ.RATIO= 0.543131  PHI,EQ.RATIO= 0.000000

                 CHAMBER   THROAT     EXIT     EXIT     EXIT     EXIT     EXIT     EXIT
 Pinf/P            1.0000   1.8176   1.8176   3.5550   4.9151   6.3176   7.7856   9.3213
 P, BAR            3.4474   1.8966   1.8966  0.96973  0.70138  0.54568  0.44279  0.36984
 T, K             1051.58   926.59   926.59   799.85   743.60   702.18   669.10   641.61
 RHO, KG/CU M    8.7355-1 5.4542-1 5.4542-1 3.2306-1 2.5134-1 2.0708-1 1.7634-1 1.5360-1
 H, KJ/KG        -6461.47 -6683.04 -6683.04 -6900.06 -6993.85 -7061.94 -7115.69 -7159.96
 U, KJ/KG        -6856.11 -7030.78 -7030.78 -7200.23 -7272.91 -7325.45 -7366.79 -7400.75
 G, KJ/KG        -17506.6 -16415.4 -16415.4 -15301.1 -14804.2 -14437.1 -14143.5 -13899.0
 S, KJ/(KG)(K)    10.5033  10.5033  10.5033  10.5033  10.5033  10.5033  10.5033  10.5033

 M, (1/n)          22.155   22.155   22.155   22.155   22.155   22.155   22.155   22.155
 (dLV/dLP)t      -1.00000 -1.00000 -1.00000 -1.00000 -1.00000 -1.00000 -1.00000 -1.00000
 (dLV/dLT)p        1.0000   1.0000   1.0000   1.0000   1.0000   1.0000   1.0000   1.0000
 Cp, KJ/(KG)(K)    1.8025   1.7429   1.7429   1.6814   1.6538   1.6334   1.6170   1.6034
 GAMMAs            1.2630   1.2744   1.2744   1.2873   1.2935   1.2983   1.3022   1.3056
 SON VEL,M/SEC      706.0    665.7    665.7    621.6    600.8    584.9    571.8    560.7
 MACH NUMBER        0.000    1.000    1.000    1.507    1.717    1.874    2.000    2.108

 TRANSPORT PROPERTIES (GASES ONLY)
   CONDUCTIVITY IN UNITS OF MILLIWATTS/(CM)(K)

 VISC,MILLIPOISE  0.44925  0.40533  0.40533  0.35847  0.33687  0.32061  0.30743  0.29633

  WITH EQUILIBRIUM REACTIONS

 Cp, KJ/(KG)(K)    1.8025   1.7429   1.7429   1.6814   1.6538   1.6334   1.6170   1.6034
 CONDUCTIVITY      0.9647   0.8266   0.8266   0.6911   0.6327   0.5905   0.5573   0.5301
 PRANDTL NUMBER    0.8394   0.8546   0.8546   0.8721   0.8805   0.8869   0.8920   0.8963

  WITH FROZEN REACTIONS

 Cp, KJ/(KG)(K)    1.8024   1.7428   1.7428   1.6814   1.6538   1.6334   1.6170   1.6034
 CONDUCTIVITY      0.9646   0.8266   0.8266   0.6911   0.6327   0.5905   0.5573   0.5301
 PRANDTL NUMBER    0.8394   0.8546   0.8546   0.8721   0.8805   0.8869   0.8920   0.8963

 PERFORMANCE PARAMETERS

 Ae/At                      1.0000   1.0000   1.2000   1.4000   1.6000   1.8000   2.0000
 CSTAR, M/SEC                949.5    949.5    949.5    949.5    949.5    949.5    949.5
 CF                         0.7011   0.7011   0.9864   1.0868   1.1542   1.2048   1.2449
 Ivac, M/SEC                1188.1   1188.1   1257.1   1302.3   1336.3   1363.4   1385.7
 Isp, M/SEC                  665.7    665.7    936.6   1031.9   1095.9   1143.9   1181.9


 MOLE FRACTIONS

 H2O              0.70393  0.70393  0.70393  0.70393  0.70393  0.70393  0.70393  0.70393
 *O2              0.29607  0.29607  0.29607  0.29607  0.29607  0.29607  0.29607  0.29607

  * THERMODYNAMIC PROPERTIES FITTED TO 20000.K

    PRODUCTS WHICH WERE CONSIDERED BUT WHOSE MOLE FRACTIONS
    WERE LESS THAN 5.000000E-06 FOR ALL ASSIGNED CONDITIONS

 *H              HO2             *H2             H2O2            *O             
 *OH             O3              H2O(cr)         H2O(L)         

 NOTE. WEIGHT FRACTION OF FUEL IN TOTAL FUELS AND OF OXIDANT IN TOTAL OXIDANTS





           THEORETICAL ROCKET PERFORMANCE ASSUMING FROZEN COMPOSITION

 Pin =    50.0 PSIA
 CASE =                

             REACTANT                    WT FRACTION      ENERGY      TEMP
                                          (SEE NOTE)     KJ/KG-MOL      K  
 FUEL        H2O(L)                       1.0000000   -285841.390    298.000
 OXIDANT     H2O2(L)                      1.0000000   -187793.400    298.000

 O/F=   10.00000  %FUEL=  9.090909  R,EQ.RATIO= 0.543131  PHI,EQ.RATIO= 0.000000

                 CHAMBER   THROAT     EXIT     EXIT     EXIT     EXIT     EXIT     EXIT
 Pinf/P            1.0000   1.8176   1.8176   3.5550   4.9151   6.3176   7.7856   9.3213
 P, BAR            3.4474   1.8966   1.8966  0.96973  0.70138  0.54568  0.44279  0.36984
 T, K             1051.58   926.59   926.59   799.84   743.60   702.17   669.10   641.61
 RHO, KG/CU M    8.7355-1 5.4543-1 5.4543-1 3.2306-1 2.5134-1 2.0708-1 1.7634-1 1.5360-1
 H, KJ/KG        -6461.47 -6683.04 -6683.04 -6900.06 -6993.85 -7061.94 -7115.69 -7159.96
 U, KJ/KG        -6856.11 -7030.78 -7030.78 -7200.23 -7272.91 -7325.45 -7366.79 -7400.74
 G, KJ/KG        -17506.6 -16415.4 -16415.4 -15301.1 -14804.1 -14437.1 -14143.5 -13899.0
 S, KJ/(KG)(K)    10.5033  10.5033  10.5033  10.5033  10.5033  10.5033  10.5033  10.5033

 M, (1/n)          22.155   22.155   22.155   22.155   22.155   22.155   22.155   22.155
 Cp, KJ/(KG)(K)    1.8024   1.7428   1.7428   1.6814   1.6538   1.6334   1.6170   1.6034
 GAMMAs            1.2630   1.2744   1.2744   1.2873   1.2935   1.2983   1.3022   1.3056
 SON VEL,M/SEC      706.0    665.7    665.7    621.6    600.8    584.9    571.8    560.7
 MACH NUMBER        0.000    1.000    1.000    1.507    1.717    1.874    2.000    2.108

 TRANSPORT PROPERTIES (GASES ONLY)
   CONDUCTIVITY IN UNITS OF MILLIWATTS/(CM)(K)

 VISC,MILLIPOISE  0.44925  0.40533  0.40533  0.35847  0.33686  0.32061  0.30743  0.29633

  WITH FROZEN REACTIONS

 Cp, KJ/(KG)(K)    1.8024   1.7428   1.7428   1.6814   1.6538   1.6334   1.6170   1.6034
 CONDUCTIVITY      0.9646   0.8266   0.8266   0.6911   0.6327   0.5905   0.5573   0.5301
 PRANDTL NUMBER    0.8394   0.8546   0.8546   0.8721   0.8805   0.8869   0.8920   0.8963

 PERFORMANCE PARAMETERS

 Ae/At                     1.00000   1.0000   1.2000   1.4000   1.6000   1.8000   2.0000
 CSTAR, M/SEC                949.4    949.4    949.4    949.4    949.4    949.4    949.4
 CF                         0.7011   0.7011   0.9865   1.0868   1.1542   1.2048   1.2449
 Ivac, M/SEC                1188.1   1188.1   1257.1   1302.3   1336.3   1363.4   1385.7
 Isp, M/SEC                  665.7    665.7    936.6   1031.9   1095.9   1143.9   1181.9

 MOLE FRACTIONS

 H2O             0.70393   *O2             0.29607

  * THERMODYNAMIC PROPERTIES FITTED TO 20000.K

    PRODUCTS WHICH WERE CONSIDERED BUT WHOSE MOLE FRACTIONS
    WERE LESS THAN 5.000000E-06 FOR ALL ASSIGNED CONDITIONS

 *H              HO2             *H2             H2O2            *O             
 *OH             O3              H2O(cr)         H2O(L)         

 NOTE. WEIGHT FRACTION OF FUEL IN TOTAL FUELS AND OF OXIDANT IN TOTAL OXIDANTS



