
 *******************************************************************************

         NASA-GLENN CHEMICAL EQUILIBRIUM PROGRAM CEA2, MAY 21, 2004
                   BY  BONNIE MCBRIDE AND SANFORD GORDON
      REFS: NASA RP-1311, PART I, 1994 AND NASA RP-1311, PART II, 1996

 *******************************************************************************



 problem rocket hp
     p(bar) = 1
     o/f = 5.6, 5.8, 6, 6.2, 6.4, 6.6
 reac
     fuel = Jet-A(L) t(K) = 298.000
     ox = Air t(K) = 1500.000
 outp trans
 end

 OPTIONS: TP=F  HP=T  SP=F  TV=F  UV=F  SV=F  DETN=F  SHOCK=F  REFL=F  INCD=F
 RKT=T  FROZ=F  EQL=F  IONS=F  SIUNIT=T  DEBUGF=F  SHKDBG=F  DETDBG=F  TRNSPT=T

 TRACE= 0.00E+00  S/R= 0.000000E+00  H/R= 0.000000E+00  U/R= 0.000000E+00

 Pc,BAR =     1.000000

 Pc/P =

 SUBSONIC AREA RATIOS =

 SUPERSONIC AREA RATIOS =

 NFZ=  1  Mdot/Ac= 0.000000E+00  Ac/At= 0.000000E+00

 WARNING!!  AMOUNT MISSING FOR REACTANT  1.
 PROGRAM SETS WEIGHT PERCENT = 100. (REACT)

 WARNING!!  AMOUNT MISSING FOR REACTANT  2.
 PROGRAM SETS WEIGHT PERCENT = 100. (REACT)

    REACTANT          WT.FRAC   (ENERGY/R),K   TEMP,K  DENSITY
        EXPLODED FORMULA
 F: Jet-A(L)         1.000000  -0.364971E+05   298.00  0.0000
          C 12.00000  H 23.00000
 O: Air              1.000000   0.464531E+04  1500.00  0.0000
          N  1.56168  O  0.41959  AR 0.00937  C  0.00032

  SPECIES BEING CONSIDERED IN THIS SYSTEM
 (CONDENSED PHASE MAY HAVE NAME LISTED SEVERAL TIMES)
  LAST thermo.inp UPDATE:    9/09/04

  g 3/98  *Ar              g 7/97  *C               tpis79  *CH            
  g 4/02  CH2              g 4/02  CH3              g11/00  CH2OH          
  g 7/00  CH3O             g 8/99  CH4              g 7/00  CH3OH          
  srd 01  CH3OOH           g 8/99  *CN              g12/99  CNN            
  tpis79  *CO              g 9/99  *CO2             tpis91  COOH           
  tpis91  *C2              g 6/01  C2H              g 1/91  C2H2,acetylene 
  g 5/01  C2H2,vinylidene  g 4/02  CH2CO,ketene     g 3/02  O(CH)2O        
  srd 01  HO(CO)2OH        g 7/01  C2H3,vinyl       g 9/00  CH3CN          
  g 6/96  CH3CO,acetyl     g 1/00  C2H4             g 8/88  C2H4O,ethylen-o
  g 8/88  CH3CHO,ethanal   g 6/00  CH3COOH          srd 01  OHCH2COOH      
  g 7/00  C2H5             g 7/00  C2H6             g 8/88  CH3N2CH3       
  g 8/88  C2H5OH           g 7/00  CH3OCH3          srd 01  CH3O2CH3       
  g 7/00  CCN              tpis91  CNC              srd 01  OCCN           
  tpis79  C2N2             g 8/00  C2O              tpis79  *C3            
  n 4/98  C3H3,1-propynl   n 4/98  C3H3,2-propynl   g 2/00  C3H4,allene    
  g 1/00  C3H4,propyne     g 5/90  C3H4,cyclo-      g 3/01  C3H5,allyl     
  g 2/00  C3H6,propylene   g 1/00  C3H6,cyclo-      g 6/01  C3H6O,propylox 
  g 6/97  C3H6O,acetone    g 1/02  C3H6O,propanal   g 7/01  C3H7,n-propyl  
  g 9/85  C3H7,i-propyl    g 2/00  C3H8             g 2/00  C3H8O,1propanol
  g 2/00  C3H8O,2propanol  srd 01  CNCOCN           g 7/88  C3O2           
  g tpis  *C4              g 7/01  C4H2,butadiyne   g 8/00  C4H4,1,3-cyclo-
  n10/92  C4H6,butadiene   n10/93  C4H6,1butyne     n10/93  C4H6,2butyne   
  g 8/00  C4H6,cyclo-      n 4/88  C4H8,1-butene    n 4/88  C4H8,cis2-buten
  n 4/88  C4H8,tr2-butene  n 4/88  C4H8,isobutene   g 8/00  C4H8,cyclo-    
  g10/00  (CH3COOH)2       n10/84  C4H9,n-butyl     n10/84  C4H9,i-butyl   
  g 1/93  C4H9,s-butyl     g 1/93  C4H9,t-butyl     g12/00  C4H10,n-butane 
  g 8/00  C4H10,isobutane  g 6/01  C4N2             g 8/00  *C5            
  g 5/90  C5H6,1,3cyclo-   g 1/93  C5H8,cyclo-      n 4/87  C5H10,1-pentene
  g 2/01  C5H10,cyclo-     n10/84  C5H11,pentyl     g 1/93  C5H11,t-pentyl 
  n10/85  C5H12,n-pentane  n10/85  C5H12,i-pentane  n10/85  CH3C(CH3)2CH3  
  g 2/93  C6H2             g11/00  C6H5,phenyl      g 8/00  C6H5O,phenoxy  
  g 8/00  C6H6             g 8/00  C6H5OH,phenol    g 1/93  C6H10,cyclo-   
  n 4/87  C6H12,1-hexene   g 6/90  C6H12,cyclo-     n10/83  C6H13,n-hexyl  
  g 6/01  C6H14,n-hexane   g 7/01  C7H7,benzyl      g 1/93  C7H8           
  g12/00  C7H8O,cresol-mx  n 4/87  C7H14,1-heptene  n10/83  C7H15,n-heptyl 
  n10/85  C7H16,n-heptane  n10/85  C7H16,2-methylh  n 4/89  C8H8,styrene   
  n10/86  C8H10,ethylbenz  n 4/87  C8H16,1-octene   n10/83  C8H17,n-octyl  
  n 4/85  C8H18,n-octane   n 4/85  C8H18,isooctane  n10/83  C9H19,n-nonyl  
  g 3/01  C10H8,naphthale  n10/83  C10H21,n-decyl   g 8/00  C12H9,o-bipheny
  g 8/00  C12H10,biphenyl  g 6/97  *H               g 6/01  HCN            
  g 1/01  HCO              tpis89  HCCN             g 6/01  HCCO           
  g 6/01  HNC              g 7/00  HNCO             g10/01  HNO            
  tpis89  HNO2             g 5/99  HNO3             g 4/02  HO2            
  tpis78  *H2              g 5/01  HCHO,formaldehy  g 6/01  HCOOH          
  g 8/89  H2O              g 6/99  H2O2             g 6/01  (HCOOH)2       
  g 5/97  *N               g 6/01  NCO              g 4/99  *NH            
  g 3/01  NH2              tpis89  NH3              tpis89  NH2OH          
  tpis89  *NO              g 4/99  NO2              j12/64  NO3            
  tpis78  *N2              g 6/01  NCN              g 5/99  N2H2           
  tpis89  NH2NO2           g 4/99  N2H4             g 4/99  N2O            
  g 4/99  N2O3             tpis89  N2O4             g 4/99  N2O5           
  tpis89  N3               g 4/99  N3H              g 5/97  *O             
  g 4/02  *OH              tpis89  *O2              g 8/01  O3             
  n 4/83  C(gr)            n 4/83  C(gr)            n 4/83  C(gr)          
  g11/99  H2O(cr)          g 8/01  H2O(L)           g 8/01  H2O(L)         

 SPECIES WITH TRANSPORT PROPERTIES

        PURE SPECIES

  Ar                C                 CH4               CH3OH           
  CO                CO2             
  C2H2,acetylene    C2H4              C2H6              C2H5OH          
  C2N2              H               
  HCN               H2                H2O               N               
  NH3               NO              
  NO2               N2                N2O               N2O4            
  O                 OH              
  O2              

     BINARY INTERACTIONS

     C               O               
     CH4             O2              
     CO              CO2             
     CO              N2              
     CO              O2              
     CO2             H2              
     CO2             H2O             
     CO2             N2              
     CO2             O2              
     H               H2              
     H               N               
     H               N2              
     H               O               
     H2              H2O             
     H2              N2              
     H2              O2              
     H2O             N2              
     H2O             O2              
     N               NO              
     N               N2              
     N               O               
     N               O2              
     NO              O               
     N2              O               
     N2              O2              
     O               O2              


 O/F =   5.600000

                       EFFECTIVE FUEL     EFFECTIVE OXIDANT        MIXTURE
 ENTHALPY                  h(2)/R              h(1)/R               h0/R
 (KG-MOL)(K)/KG       -0.21813927E+03      0.16037597E+03      0.10302518E+03

 KG-FORM.WT./KG             bi(2)               bi(1)               b0i
  *C                   0.71722711E-01      0.11013248E-04      0.10876422E-01
  *H                   0.13746853E+00      0.00000000E+00      0.20828565E-01
  *N                   0.00000000E+00      0.53915890E-01      0.45746816E-01
  *O                   0.00000000E+00      0.14486046E-01      0.12291190E-01
  *Ar                  0.00000000E+00      0.32331996E-03      0.27433208E-03

 POINT ITN      T            C           H           N           O 
                    AR
   1   23    1945.643     -10.858     -10.478     -13.757     -25.021
                 -26.284





           THEORETICAL ROCKET PERFORMANCE ASSUMING FROZEN COMPOSITION

 Pin =    14.5 PSIA
 CASE =                

             REACTANT                    WT FRACTION      ENERGY      TEMP
                                          (SEE NOTE)     KJ/KG-MOL      K  
 FUEL        Jet-A(L)                     1.0000000   -303455.540    298.000
 OXIDANT     Air                          1.0000000     38623.465   1500.000

 O/F=    5.60000  %FUEL= 15.151515  R,EQ.RATIO= 2.617088  PHI,EQ.RATIO= 2.619551

                 CHAMBER   THROAT
 Pinf/P            1.0000   1.8373
 P, BAR            1.0000  0.54427
 T, K             1945.64  1688.62
 RHO, KG/CU M    1.3907-1 8.7212-2
 H, KJ/KG          856.60   448.68
 U, KJ/KG          137.54  -175.40
 G, KJ/KG        -20713.2 -18271.7
 S, KJ/(KG)(K)    11.0862  11.0862

 M, (1/n)          22.497   22.497
 Cp, KJ/(KG)(K)    1.6010   1.5721
 GAMMAs            1.3001   1.3073
 SON VEL,M/SEC      966.9    903.3
 MACH NUMBER        0.000    1.000

 TRANSPORT PROPERTIES (GASES ONLY)
   CONDUCTIVITY IN UNITS OF MILLIWATTS/(CM)(K)

 VISC,MILLIPOISE  0.64442  0.58591

  WITH FROZEN REACTIONS

 Cp, KJ/(KG)(K)    1.6010   1.5721
 CONDUCTIVITY      1.7665   1.5662
 PRANDTL NUMBER    0.5841   0.5881

 PERFORMANCE PARAMETERS

 Ae/At                      1.0000
 CSTAR, M/SEC               1269.5
 CF                         0.7115
 Ivac, M/SEC                1594.2
 Isp, M/SEC                  903.2

 MOLE FRACTIONS

 *Ar             0.00617   *CO             0.23811   *CO2            0.00657
 *H              0.00051   *H2             0.20878   H2O             0.02525
 *N2             0.51459   *OH             0.00001

  * THERMODYNAMIC PROPERTIES FITTED TO 20000.K

    PRODUCTS WHICH WERE CONSIDERED BUT WHOSE MOLE FRACTIONS
    WERE LESS THAN 5.000000E-06 FOR ALL ASSIGNED CONDITIONS



 NOTE. WEIGHT FRACTION OF FUEL IN TOTAL FUELS AND OF OXIDANT IN TOTAL OXIDANTS






 O/F =   5.800000

                       EFFECTIVE FUEL     EFFECTIVE OXIDANT        MIXTURE
 ENTHALPY                  h(2)/R              h(1)/R               h0/R
 (KG-MOL)(K)/KG       -0.21813927E+03      0.16037597E+03      0.10471197E+03

 KG-FORM.WT./KG             bi(2)               bi(1)               b0i
  *C                   0.71722711E-01      0.11013248E-04      0.10556851E-01
  *H                   0.13746853E+00      0.00000000E+00      0.20215960E-01
  *N                   0.00000000E+00      0.53915890E-01      0.45987083E-01
  *O                   0.00000000E+00      0.14486046E-01      0.12355745E-01
  *Ar                  0.00000000E+00      0.32331996E-03      0.27577290E-03

 POINT ITN      T            C           H           N           O 
                    AR
   1    4    2002.464     -11.490     -10.553     -13.797     -24.319
                 -26.328





           THEORETICAL ROCKET PERFORMANCE ASSUMING FROZEN COMPOSITION

 Pin =    14.5 PSIA
 CASE =                

             REACTANT                    WT FRACTION      ENERGY      TEMP
                                          (SEE NOTE)     KJ/KG-MOL      K  
 FUEL        Jet-A(L)                     1.0000000   -303455.540    298.000
 OXIDANT     Air                          1.0000000     38623.465   1500.000

 O/F=    5.80000  %FUEL= 14.705882  R,EQ.RATIO= 2.526896  PHI,EQ.RATIO= 2.529221

                 CHAMBER   THROAT
 Pinf/P            1.0000   1.8352
 P, BAR            1.0000  0.54490
 T, K             2002.46  1740.48
 RHO, KG/CU M    1.3666-1 8.5674-2
 H, KJ/KG          870.63   456.00
 U, KJ/KG          138.87  -180.02
 G, KJ/KG        -21258.9 -18778.2
 S, KJ/(KG)(K)    11.0511  11.0511

 M, (1/n)          22.753   22.753
 Cp, KJ/(KG)(K)    1.5961   1.5680
 GAMMAs            1.2969   1.3039
 SON VEL,M/SEC      974.2    910.6
 MACH NUMBER        0.000    1.000

 TRANSPORT PROPERTIES (GASES ONLY)
   CONDUCTIVITY IN UNITS OF MILLIWATTS/(CM)(K)

 VISC,MILLIPOISE  0.65908  0.59959

  WITH FROZEN REACTIONS

 Cp, KJ/(KG)(K)    1.5961   1.5680
 CONDUCTIVITY      1.7816   1.5810
 PRANDTL NUMBER    0.5905   0.5947

 PERFORMANCE PARAMETERS

 Ae/At                      1.0000
 CSTAR, M/SEC               1281.8
 CF                         0.7105
 Ivac, M/SEC                1609.1
 Isp, M/SEC                  910.6

 MOLE FRACTIONS

 *Ar             0.00627   *CO             0.23185   *CO2            0.00835
 *H              0.00074   *H2             0.19704   H2O             0.03257
 *N2             0.52317   *OH             0.00001

  * THERMODYNAMIC PROPERTIES FITTED TO 20000.K

    PRODUCTS WHICH WERE CONSIDERED BUT WHOSE MOLE FRACTIONS
    WERE LESS THAN 5.000000E-06 FOR ALL ASSIGNED CONDITIONS



 NOTE. WEIGHT FRACTION OF FUEL IN TOTAL FUELS AND OF OXIDANT IN TOTAL OXIDANTS






 O/F =   6.000000

                       EFFECTIVE FUEL     EFFECTIVE OXIDANT        MIXTURE
 ENTHALPY                  h(2)/R              h(1)/R               h0/R
 (KG-MOL)(K)/KG       -0.21813927E+03      0.16037597E+03      0.10630237E+03

 KG-FORM.WT./KG             bi(2)               bi(1)               b0i
  *C                   0.71722711E-01      0.11013248E-04      0.10255542E-01
  *H                   0.13746853E+00      0.00000000E+00      0.19638361E-01
  *N                   0.00000000E+00      0.53915890E-01      0.46213620E-01
  *O                   0.00000000E+00      0.14486046E-01      0.12416611E-01
  *Ar                  0.00000000E+00      0.32331996E-03      0.27713139E-03

 POINT ITN      T            C           H           N           O 
                    AR
   1    4    2056.101     -12.036     -10.625     -13.834     -23.717
                 -26.369





           THEORETICAL ROCKET PERFORMANCE ASSUMING FROZEN COMPOSITION

 Pin =    14.5 PSIA
 CASE =                

             REACTANT                    WT FRACTION      ENERGY      TEMP
                                          (SEE NOTE)     KJ/KG-MOL      K  
 FUEL        Jet-A(L)                     1.0000000   -303455.540    298.000
 OXIDANT     Air                          1.0000000     38623.465   1500.000

 O/F=    6.00000  %FUEL= 14.285714  R,EQ.RATIO= 2.442717  PHI,EQ.RATIO= 2.444914

                 CHAMBER   THROAT
 Pinf/P            1.0000   1.8332
 P, BAR            1.0000  0.54548
 T, K             2056.10  1789.50
 RHO, KG/CU M    1.3453-1 8.4316-2
 H, KJ/KG          883.85   463.13
 U, KJ/KG          140.52  -183.82
 G, KJ/KG        -21765.7 -19249.7
 S, KJ/(KG)(K)    11.0158  11.0158

 M, (1/n)          22.998   22.998
 Cp, KJ/(KG)(K)    1.5912   1.5639
 GAMMAs            1.2940   1.3007
 SON VEL,M/SEC      980.8    917.3
 MACH NUMBER        0.000    1.000

 TRANSPORT PROPERTIES (GASES ONLY)
   CONDUCTIVITY IN UNITS OF MILLIWATTS/(CM)(K)

 VISC,MILLIPOISE  0.67295  0.61255

  WITH FROZEN REACTIONS

 Cp, KJ/(KG)(K)    1.5912   1.5639
 CONDUCTIVITY      1.7947   1.5939
 PRANDTL NUMBER    0.5966   0.6010

 PERFORMANCE PARAMETERS

 Ae/At                      1.0000
 CSTAR, M/SEC               1292.9
 CF                         0.7095
 Ivac, M/SEC                1622.6
 Isp, M/SEC                  917.3

 MOLE FRACTIONS

 *Ar             0.00637   *CO             0.22579   *CO2            0.01007
 *H              0.00102   *H2             0.18569   H2O             0.03961
 *N2             0.53142   *OH             0.00003

  * THERMODYNAMIC PROPERTIES FITTED TO 20000.K

    PRODUCTS WHICH WERE CONSIDERED BUT WHOSE MOLE FRACTIONS
    WERE LESS THAN 5.000000E-06 FOR ALL ASSIGNED CONDITIONS



 NOTE. WEIGHT FRACTION OF FUEL IN TOTAL FUELS AND OF OXIDANT IN TOTAL OXIDANTS






 O/F =   6.200000

                       EFFECTIVE FUEL     EFFECTIVE OXIDANT        MIXTURE
 ENTHALPY                  h(2)/R              h(1)/R               h0/R
 (KG-MOL)(K)/KG       -0.21813927E+03      0.16037597E+03      0.10780441E+03

 KG-FORM.WT./KG             bi(2)               bi(1)               b0i
  *C                   0.71722711E-01      0.11013248E-04      0.99709713E-02
  *H                   0.13746853E+00      0.00000000E+00      0.19092851E-01
  *N                   0.00000000E+00      0.53915890E-01      0.46427572E-01
  *O                   0.00000000E+00      0.14486046E-01      0.12474095E-01
  *Ar                  0.00000000E+00      0.32331996E-03      0.27841441E-03

 POINT ITN      T            C           H           N           O 
                    AR
   1    3    2106.744     -12.518     -10.694     -13.868     -23.189
                 -26.406





           THEORETICAL ROCKET PERFORMANCE ASSUMING FROZEN COMPOSITION

 Pin =    14.5 PSIA
 CASE =                

             REACTANT                    WT FRACTION      ENERGY      TEMP
                                          (SEE NOTE)     KJ/KG-MOL      K  
 FUEL        Jet-A(L)                     1.0000000   -303455.540    298.000
 OXIDANT     Air                          1.0000000     38623.465   1500.000

 O/F=    6.20000  %FUEL= 13.888889  R,EQ.RATIO= 2.363969  PHI,EQ.RATIO= 2.366046

                 CHAMBER   THROAT
 Pinf/P            1.0000   1.8314
 P, BAR            1.0000  0.54602
 T, K             2106.74  1835.87
 RHO, KG/CU M    1.3264-1 8.3112-2
 H, KJ/KG          896.34   470.07
 U, KJ/KG          142.43  -186.90
 G, KJ/KG        -22236.8 -19688.7
 S, KJ/(KG)(K)    10.9805  10.9805

 M, (1/n)          23.234   23.234
 Cp, KJ/(KG)(K)    1.5864   1.5599
 GAMMAs            1.2913   1.2977
 SON VEL,M/SEC      986.7    923.3
 MACH NUMBER        0.000    1.000

 TRANSPORT PROPERTIES (GASES ONLY)
   CONDUCTIVITY IN UNITS OF MILLIWATTS/(CM)(K)

 VISC,MILLIPOISE  0.68608  0.62483

  WITH FROZEN REACTIONS

 Cp, KJ/(KG)(K)    1.5864   1.5599
 CONDUCTIVITY      1.8061   1.6053
 PRANDTL NUMBER    0.6026   0.6072

 PERFORMANCE PARAMETERS

 Ae/At                      1.0000
 CSTAR, M/SEC               1303.1
 CF                         0.7086
 Ivac, M/SEC                1634.9
 Isp, M/SEC                  923.3

 MOLE FRACTIONS

 *Ar             0.00647   *CO             0.21991   *CO2            0.01176
 *H              0.00136   *H2             0.17475   H2O             0.04635
 *N2             0.53935   *OH             0.00005

  * THERMODYNAMIC PROPERTIES FITTED TO 20000.K

    PRODUCTS WHICH WERE CONSIDERED BUT WHOSE MOLE FRACTIONS
    WERE LESS THAN 5.000000E-06 FOR ALL ASSIGNED CONDITIONS



 NOTE. WEIGHT FRACTION OF FUEL IN TOTAL FUELS AND OF OXIDANT IN TOTAL OXIDANTS






 O/F =   6.400000

                       EFFECTIVE FUEL     EFFECTIVE OXIDANT        MIXTURE
 ENTHALPY                  h(2)/R              h(1)/R               h0/R
 (KG-MOL)(K)/KG       -0.21813927E+03      0.16037597E+03      0.10922526E+03

 KG-FORM.WT./KG             bi(2)               bi(1)               b0i
  *C                   0.71722711E-01      0.11013248E-04      0.97017833E-02
  *H                   0.13746853E+00      0.00000000E+00      0.18576828E-01
  *N                   0.00000000E+00      0.53915890E-01      0.46629959E-01
  *O                   0.00000000E+00      0.14486046E-01      0.12528472E-01
  *Ar                  0.00000000E+00      0.32331996E-03      0.27962807E-03

 POINT ITN      T            C           H           N           O 
                    AR
   1    3    2154.569     -12.953     -10.762     -13.899     -22.719
                 -26.441





           THEORETICAL ROCKET PERFORMANCE ASSUMING FROZEN COMPOSITION

 Pin =    14.5 PSIA
 CASE =                

             REACTANT                    WT FRACTION      ENERGY      TEMP
                                          (SEE NOTE)     KJ/KG-MOL      K  
 FUEL        Jet-A(L)                     1.0000000   -303455.540    298.000
 OXIDANT     Air                          1.0000000     38623.465   1500.000

 O/F=    6.40000  %FUEL= 13.513514  R,EQ.RATIO= 2.290142  PHI,EQ.RATIO= 2.292107

                 CHAMBER   THROAT
 Pinf/P            1.0000   1.8298
 P, BAR            1.0000  0.54652
 T, K             2154.57  1879.71
 RHO, KG/CU M    1.3096-1 8.2040-2
 H, KJ/KG          908.15   476.83
 U, KJ/KG          144.58  -189.34
 G, KJ/KG        -22674.7 -20097.6
 S, KJ/(KG)(K)    10.9455  10.9455

 M, (1/n)          23.461   23.461
 Cp, KJ/(KG)(K)    1.5816   1.5559
 GAMMAs            1.2888   1.2950
 SON VEL,M/SEC      992.0    928.8
 MACH NUMBER        0.000    1.000

 TRANSPORT PROPERTIES (GASES ONLY)
   CONDUCTIVITY IN UNITS OF MILLIWATTS/(CM)(K)

 VISC,MILLIPOISE  0.69851  0.63647

  WITH FROZEN REACTIONS

 Cp, KJ/(KG)(K)    1.5816   1.5559
 CONDUCTIVITY      1.8161   1.6153
 PRANDTL NUMBER    0.6083   0.6130

 PERFORMANCE PARAMETERS

 Ae/At                      1.0000
 CSTAR, M/SEC               1312.4
 CF                         0.7077
 Ivac, M/SEC                1646.0
 Isp, M/SEC                  928.8

 MOLE FRACTIONS

 *Ar             0.00656   *CO             0.21418   *CO2            0.01343
 *H              0.00176   *H2             0.16420   H2O             0.05279
 *NO             0.00001   *N2             0.54699   *OH             0.00008

  * THERMODYNAMIC PROPERTIES FITTED TO 20000.K

    PRODUCTS WHICH WERE CONSIDERED BUT WHOSE MOLE FRACTIONS
    WERE LESS THAN 5.000000E-06 FOR ALL ASSIGNED CONDITIONS



 NOTE. WEIGHT FRACTION OF FUEL IN TOTAL FUELS AND OF OXIDANT IN TOTAL OXIDANTS






 O/F =   6.600000

                       EFFECTIVE FUEL     EFFECTIVE OXIDANT        MIXTURE
 ENTHALPY                  h(2)/R              h(1)/R               h0/R
 (KG-MOL)(K)/KG       -0.21813927E+03      0.16037597E+03      0.11057133E+03

 KG-FORM.WT./KG             bi(2)               bi(1)               b0i
  *C                   0.71722711E-01      0.11013248E-04      0.94467630E-02
  *H                   0.13746853E+00      0.00000000E+00      0.18087964E-01
  *N                   0.00000000E+00      0.53915890E-01      0.46821694E-01
  *O                   0.00000000E+00      0.14486046E-01      0.12579987E-01
  *Ar                  0.00000000E+00      0.32331996E-03      0.28077786E-03

 POINT ITN      T            C           H           N           O 
                    AR
   1    3    2199.737     -13.350     -10.828     -13.929     -22.294
                 -26.472





           THEORETICAL ROCKET PERFORMANCE ASSUMING FROZEN COMPOSITION

 Pin =    14.5 PSIA
 CASE =                

             REACTANT                    WT FRACTION      ENERGY      TEMP
                                          (SEE NOTE)     KJ/KG-MOL      K  
 FUEL        Jet-A(L)                     1.0000000   -303455.540    298.000
 OXIDANT     Air                          1.0000000     38623.465   1500.000

 O/F=    6.60000  %FUEL= 13.157895  R,EQ.RATIO= 2.220790  PHI,EQ.RATIO= 2.222649

                 CHAMBER   THROAT
 Pinf/P            1.0000   1.8282
 P, BAR            1.0000  0.54698
 T, K             2199.74  1921.18
 RHO, KG/CU M    1.2946-1 8.1083-2
 H, KJ/KG          919.35   483.42
 U, KJ/KG          146.93  -191.18
 G, KJ/KG        -23081.9 -20478.5
 S, KJ/(KG)(K)    10.9110  10.9110

 M, (1/n)          23.679   23.679
 Cp, KJ/(KG)(K)    1.5770   1.5519
 GAMMAs            1.2864   1.2924
 SON VEL,M/SEC      996.8    933.7
 MACH NUMBER        0.000    1.000

 TRANSPORT PROPERTIES (GASES ONLY)
   CONDUCTIVITY IN UNITS OF MILLIWATTS/(CM)(K)

 VISC,MILLIPOISE  0.71028  0.64750

  WITH FROZEN REACTIONS

 Cp, KJ/(KG)(K)    1.5770   1.5519
 CONDUCTIVITY      1.8248   1.6242
 PRANDTL NUMBER    0.6138   0.6187

 PERFORMANCE PARAMETERS

 Ae/At                      1.0000
 CSTAR, M/SEC               1320.8
 CF                         0.7069
 Ivac, M/SEC                1656.2
 Isp, M/SEC                  933.7

 MOLE FRACTIONS

 *Ar             0.00665   *CO             0.20857   *CO2            0.01512
 *H              0.00221   *H2             0.15405   H2O             0.05893
 *NO             0.00001   *N2             0.55433   *OH             0.00013

  * THERMODYNAMIC PROPERTIES FITTED TO 20000.K

    PRODUCTS WHICH WERE CONSIDERED BUT WHOSE MOLE FRACTIONS
    WERE LESS THAN 5.000000E-06 FOR ALL ASSIGNED CONDITIONS



 NOTE. WEIGHT FRACTION OF FUEL IN TOTAL FUELS AND OF OXIDANT IN TOTAL OXIDANTS



