
 *******************************************************************************

         NASA-GLENN CHEMICAL EQUILIBRIUM PROGRAM CEA2, MAY 21, 2004
                   BY  BONNIE MCBRIDE AND SANFORD GORDON
      REFS: NASA RP-1311, PART I, 1994 AND NASA RP-1311, PART II, 1996

 *******************************************************************************



 problem rocket hp
     p(bar) = 1
     o/f = 9.2, 9.4, 9.6, 9.8, 10
 reac
     fuel = Jet-A(L) t(K) = 298.000
     ox = Air t(K) = 1500.000
 outp trans
 end

 OPTIONS: TP=F  HP=T  SP=F  TV=F  UV=F  SV=F  DETN=F  SHOCK=F  REFL=F  INCD=F
 RKT=T  FROZ=F  EQL=F  IONS=F  SIUNIT=T  DEBUGF=F  SHKDBG=F  DETDBG=F  TRNSPT=T

 TRACE= 0.00E+00  S/R= 0.000000E+00  H/R= 0.000000E+00  U/R= 0.000000E+00

 Pc,BAR =     1.000000

 Pc/P =

 SUBSONIC AREA RATIOS =

 SUPERSONIC AREA RATIOS =

 NFZ=  1  Mdot/Ac= 0.000000E+00  Ac/At= 0.000000E+00

 WARNING!!  AMOUNT MISSING FOR REACTANT  1.
 PROGRAM SETS WEIGHT PERCENT = 100. (REACT)

 WARNING!!  AMOUNT MISSING FOR REACTANT  2.
 PROGRAM SETS WEIGHT PERCENT = 100. (REACT)

    REACTANT          WT.FRAC   (ENERGY/R),K   TEMP,K  DENSITY
        EXPLODED FORMULA
 F: Jet-A(L)         1.000000  -0.364971E+05   298.00  0.0000
          C 12.00000  H 23.00000
 O: Air              1.000000   0.464531E+04  1500.00  0.0000
          N  1.56168  O  0.41959  AR 0.00937  C  0.00032

  SPECIES BEING CONSIDERED IN THIS SYSTEM
 (CONDENSED PHASE MAY HAVE NAME LISTED SEVERAL TIMES)
  LAST thermo.inp UPDATE:    9/09/04

  g 3/98  *Ar              g 7/97  *C               tpis79  *CH            
  g 4/02  CH2              g 4/02  CH3              g11/00  CH2OH          
  g 7/00  CH3O             g 8/99  CH4              g 7/00  CH3OH          
  srd 01  CH3OOH           g 8/99  *CN              g12/99  CNN            
  tpis79  *CO              g 9/99  *CO2             tpis91  COOH           
  tpis91  *C2              g 6/01  C2H              g 1/91  C2H2,acetylene 
  g 5/01  C2H2,vinylidene  g 4/02  CH2CO,ketene     g 3/02  O(CH)2O        
  srd 01  HO(CO)2OH        g 7/01  C2H3,vinyl       g 9/00  CH3CN          
  g 6/96  CH3CO,acetyl     g 1/00  C2H4             g 8/88  C2H4O,ethylen-o
  g 8/88  CH3CHO,ethanal   g 6/00  CH3COOH          srd 01  OHCH2COOH      
  g 7/00  C2H5             g 7/00  C2H6             g 8/88  CH3N2CH3       
  g 8/88  C2H5OH           g 7/00  CH3OCH3          srd 01  CH3O2CH3       
  g 7/00  CCN              tpis91  CNC              srd 01  OCCN           
  tpis79  C2N2             g 8/00  C2O              tpis79  *C3            
  n 4/98  C3H3,1-propynl   n 4/98  C3H3,2-propynl   g 2/00  C3H4,allene    
  g 1/00  C3H4,propyne     g 5/90  C3H4,cyclo-      g 3/01  C3H5,allyl     
  g 2/00  C3H6,propylene   g 1/00  C3H6,cyclo-      g 6/01  C3H6O,propylox 
  g 6/97  C3H6O,acetone    g 1/02  C3H6O,propanal   g 7/01  C3H7,n-propyl  
  g 9/85  C3H7,i-propyl    g 2/00  C3H8             g 2/00  C3H8O,1propanol
  g 2/00  C3H8O,2propanol  srd 01  CNCOCN           g 7/88  C3O2           
  g tpis  *C4              g 7/01  C4H2,butadiyne   g 8/00  C4H4,1,3-cyclo-
  n10/92  C4H6,butadiene   n10/93  C4H6,1butyne     n10/93  C4H6,2butyne   
  g 8/00  C4H6,cyclo-      n 4/88  C4H8,1-butene    n 4/88  C4H8,cis2-buten
  n 4/88  C4H8,tr2-butene  n 4/88  C4H8,isobutene   g 8/00  C4H8,cyclo-    
  g10/00  (CH3COOH)2       n10/84  C4H9,n-butyl     n10/84  C4H9,i-butyl   
  g 1/93  C4H9,s-butyl     g 1/93  C4H9,t-butyl     g12/00  C4H10,n-butane 
  g 8/00  C4H10,isobutane  g 6/01  C4N2             g 8/00  *C5            
  g 5/90  C5H6,1,3cyclo-   g 1/93  C5H8,cyclo-      n 4/87  C5H10,1-pentene
  g 2/01  C5H10,cyclo-     n10/84  C5H11,pentyl     g 1/93  C5H11,t-pentyl 
  n10/85  C5H12,n-pentane  n10/85  C5H12,i-pentane  n10/85  CH3C(CH3)2CH3  
  g 2/93  C6H2             g11/00  C6H5,phenyl      g 8/00  C6H5O,phenoxy  
  g 8/00  C6H6             g 8/00  C6H5OH,phenol    g 1/93  C6H10,cyclo-   
  n 4/87  C6H12,1-hexene   g 6/90  C6H12,cyclo-     n10/83  C6H13,n-hexyl  
  g 6/01  C6H14,n-hexane   g 7/01  C7H7,benzyl      g 1/93  C7H8           
  g12/00  C7H8O,cresol-mx  n 4/87  C7H14,1-heptene  n10/83  C7H15,n-heptyl 
  n10/85  C7H16,n-heptane  n10/85  C7H16,2-methylh  n 4/89  C8H8,styrene   
  n10/86  C8H10,ethylbenz  n 4/87  C8H16,1-octene   n10/83  C8H17,n-octyl  
  n 4/85  C8H18,n-octane   n 4/85  C8H18,isooctane  n10/83  C9H19,n-nonyl  
  g 3/01  C10H8,naphthale  n10/83  C10H21,n-decyl   g 8/00  C12H9,o-bipheny
  g 8/00  C12H10,biphenyl  g 6/97  *H               g 6/01  HCN            
  g 1/01  HCO              tpis89  HCCN             g 6/01  HCCO           
  g 6/01  HNC              g 7/00  HNCO             g10/01  HNO            
  tpis89  HNO2             g 5/99  HNO3             g 4/02  HO2            
  tpis78  *H2              g 5/01  HCHO,formaldehy  g 6/01  HCOOH          
  g 8/89  H2O              g 6/99  H2O2             g 6/01  (HCOOH)2       
  g 5/97  *N               g 6/01  NCO              g 4/99  *NH            
  g 3/01  NH2              tpis89  NH3              tpis89  NH2OH          
  tpis89  *NO              g 4/99  NO2              j12/64  NO3            
  tpis78  *N2              g 6/01  NCN              g 5/99  N2H2           
  tpis89  NH2NO2           g 4/99  N2H4             g 4/99  N2O            
  g 4/99  N2O3             tpis89  N2O4             g 4/99  N2O5           
  tpis89  N3               g 4/99  N3H              g 5/97  *O             
  g 4/02  *OH              tpis89  *O2              g 8/01  O3             
  n 4/83  C(gr)            n 4/83  C(gr)            n 4/83  C(gr)          
  g11/99  H2O(cr)          g 8/01  H2O(L)           g 8/01  H2O(L)         

 SPECIES WITH TRANSPORT PROPERTIES

        PURE SPECIES

  Ar                C                 CH4               CH3OH           
  CO                CO2             
  C2H2,acetylene    C2H4              C2H6              C2H5OH          
  C2N2              H               
  HCN               H2                H2O               N               
  NH3               NO              
  NO2               N2                N2O               N2O4            
  O                 OH              
  O2              

     BINARY INTERACTIONS

     C               O               
     CH4             O2              
     CO              CO2             
     CO              N2              
     CO              O2              
     CO2             H2              
     CO2             H2O             
     CO2             N2              
     CO2             O2              
     H               H2              
     H               N               
     H               N2              
     H               O               
     H2              H2O             
     H2              N2              
     H2              O2              
     H2O             N2              
     H2O             O2              
     N               NO              
     N               N2              
     N               O               
     N               O2              
     NO              O               
     N2              O               
     N2              O2              
     O               O2              


 O/F =   9.200000

                       EFFECTIVE FUEL     EFFECTIVE OXIDANT        MIXTURE
 ENTHALPY                  h(2)/R              h(1)/R               h0/R
 (KG-MOL)(K)/KG       -0.21813927E+03      0.16037597E+03      0.12326663E+03

 KG-FORM.WT./KG             bi(2)               bi(1)               b0i
  *C                   0.71722711E-01      0.11013248E-04      0.70415719E-02
  *H                   0.13746853E+00      0.00000000E+00      0.13477307E-01
  *N                   0.00000000E+00      0.53915890E-01      0.48630018E-01
  *O                   0.00000000E+00      0.14486046E-01      0.13065845E-01
  *Ar                  0.00000000E+00      0.32331996E-03      0.29162192E-03

 POINT ITN      T            C           H           N           O 
                    AR
   1   25    2594.832     -16.776     -11.587     -14.158     -18.927
                 -26.708





           THEORETICAL ROCKET PERFORMANCE ASSUMING FROZEN COMPOSITION

 Pin =    14.5 PSIA
 CASE =                

             REACTANT                    WT FRACTION      ENERGY      TEMP
                                          (SEE NOTE)     KJ/KG-MOL      K  
 FUEL        Jet-A(L)                     1.0000000   -303455.540    298.000
 OXIDANT     Air                          1.0000000     38623.465   1500.000

 O/F=    9.20000  %FUEL=  9.803922  R,EQ.RATIO= 1.593605  PHI,EQ.RATIO= 1.594509

                 CHAMBER   THROAT
 Pinf/P            1.0000   1.8153
 P, BAR            1.0000  0.55087
 T, K             2594.83  2286.65
 RHO, KG/CU M    1.1980-1 7.4889-2
 H, KJ/KG         1024.90   557.31
 U, KJ/KG          190.18  -178.28
 G, KJ/KG        -26275.8 -23501.0
 S, KJ/(KG)(K)    10.5212  10.5212

 M, (1/n)          25.847   25.847
 Cp, KJ/(KG)(K)    1.5265   1.5072
 GAMMAs            1.2670   1.2713
 SON VEL,M/SEC     1028.4    967.0
 MACH NUMBER        0.000    1.000

 TRANSPORT PROPERTIES (GASES ONLY)
   CONDUCTIVITY IN UNITS OF MILLIWATTS/(CM)(K)

 VISC,MILLIPOISE  0.81586  0.74700

  WITH FROZEN REACTIONS

 Cp, KJ/(KG)(K)    1.5265   1.5072
 CONDUCTIVITY      1.8732   1.6788
 PRANDTL NUMBER    0.6649   0.6707

 PERFORMANCE PARAMETERS

 Ae/At                      1.0000
 CSTAR, M/SEC               1380.8
 CF                         0.7003
 Ivac, M/SEC                1727.7
 Isp, M/SEC                  967.1

 MOLE FRACTIONS

 *Ar             0.00754   *CO             0.14132   *CO2            0.04068
 *H              0.00911   *H2             0.05861   H2O             0.10887
 *NO             0.00090   *N2             0.62801   *O              0.00039
 *OH             0.00427   *O2             0.00029

  * THERMODYNAMIC PROPERTIES FITTED TO 20000.K

    PRODUCTS WHICH WERE CONSIDERED BUT WHOSE MOLE FRACTIONS
    WERE LESS THAN 5.000000E-06 FOR ALL ASSIGNED CONDITIONS



 NOTE. WEIGHT FRACTION OF FUEL IN TOTAL FUELS AND OF OXIDANT IN TOTAL OXIDANTS






 O/F =   9.400000

                       EFFECTIVE FUEL     EFFECTIVE OXIDANT        MIXTURE
 ENTHALPY                  h(2)/R              h(1)/R               h0/R
 (KG-MOL)(K)/KG       -0.21813927E+03      0.16037597E+03      0.12398028E+03

 KG-FORM.WT./KG             bi(2)               bi(1)               b0i
  *C                   0.71722711E-01      0.11013248E-04      0.69063688E-02
  *H                   0.13746853E+00      0.00000000E+00      0.13218128E-01
  *N                   0.00000000E+00      0.53915890E-01      0.48731670E-01
  *O                   0.00000000E+00      0.14486046E-01      0.13093157E-01
  *Ar                  0.00000000E+00      0.32331996E-03      0.29223150E-03

 POINT ITN      T            C           H           N           O 
                    AR
   1    3    2612.453     -16.962     -11.639     -14.167     -18.766
                 -26.716





           THEORETICAL ROCKET PERFORMANCE ASSUMING FROZEN COMPOSITION

 Pin =    14.5 PSIA
 CASE =                

             REACTANT                    WT FRACTION      ENERGY      TEMP
                                          (SEE NOTE)     KJ/KG-MOL      K  
 FUEL        Jet-A(L)                     1.0000000   -303455.540    298.000
 OXIDANT     Air                          1.0000000     38623.465   1500.000

 O/F=    9.40000  %FUEL=  9.615385  R,EQ.RATIO= 1.559731  PHI,EQ.RATIO= 1.560583

                 CHAMBER   THROAT
 Pinf/P            1.0000   1.8147
 P, BAR            1.0000  0.55105
 T, K             2612.45  2303.12
 RHO, KG/CU M    1.1956-1 7.4731-2
 H, KJ/KG         1030.84   562.46
 U, KJ/KG          194.43  -174.91
 G, KJ/KG        -26389.1 -23610.7
 S, KJ/(KG)(K)    10.4958  10.4958

 M, (1/n)          25.970   25.970
 Cp, KJ/(KG)(K)    1.5233   1.5042
 GAMMAs            1.2661   1.2704
 SON VEL,M/SEC     1029.1    967.9
 MACH NUMBER        0.000    1.000

 TRANSPORT PROPERTIES (GASES ONLY)
   CONDUCTIVITY IN UNITS OF MILLIWATTS/(CM)(K)

 VISC,MILLIPOISE  0.82080  0.75169

  WITH FROZEN REACTIONS

 Cp, KJ/(KG)(K)    1.5233   1.5042
 CONDUCTIVITY      1.8732   1.6794
 PRANDTL NUMBER    0.6675   0.6733

 PERFORMANCE PARAMETERS

 Ae/At                      1.0000
 CSTAR, M/SEC               1382.6
 CF                         0.7000
 Ivac, M/SEC                1729.7
 Isp, M/SEC                  967.9

 MOLE FRACTIONS

 *Ar             0.00759   *CO             0.13647   *CO2            0.04288
 *H              0.00940   *H2             0.05406   H2O             0.11040
 *NO             0.00111   *N2             0.63222   *O              0.00050
 *OH             0.00494   *O2             0.00042

  * THERMODYNAMIC PROPERTIES FITTED TO 20000.K

    PRODUCTS WHICH WERE CONSIDERED BUT WHOSE MOLE FRACTIONS
    WERE LESS THAN 5.000000E-06 FOR ALL ASSIGNED CONDITIONS



 NOTE. WEIGHT FRACTION OF FUEL IN TOTAL FUELS AND OF OXIDANT IN TOTAL OXIDANTS






 O/F =   9.600000

                       EFFECTIVE FUEL     EFFECTIVE OXIDANT        MIXTURE
 ENTHALPY                  h(2)/R              h(1)/R               h0/R
 (KG-MOL)(K)/KG       -0.21813927E+03      0.16037597E+03      0.12466699E+03

 KG-FORM.WT./KG             bi(2)               bi(1)               b0i
  *C                   0.71722711E-01      0.11013248E-04      0.67762678E-02
  *H                   0.13746853E+00      0.00000000E+00      0.12968729E-01
  *N                   0.00000000E+00      0.53915890E-01      0.48829485E-01
  *O                   0.00000000E+00      0.14486046E-01      0.13119438E-01
  *Ar                  0.00000000E+00      0.32331996E-03      0.29281807E-03

 POINT ITN      T            C           H           N           O 
                    AR
   1    3    2628.379     -17.139     -11.690     -14.175     -18.616
                 -26.723





           THEORETICAL ROCKET PERFORMANCE ASSUMING FROZEN COMPOSITION

 Pin =    14.5 PSIA
 CASE =                

             REACTANT                    WT FRACTION      ENERGY      TEMP
                                          (SEE NOTE)     KJ/KG-MOL      K  
 FUEL        Jet-A(L)                     1.0000000   -303455.540    298.000
 OXIDANT     Air                          1.0000000     38623.465   1500.000

 O/F=    9.60000  %FUEL=  9.433962  R,EQ.RATIO= 1.527268  PHI,EQ.RATIO= 1.528071

                 CHAMBER   THROAT
 Pinf/P            1.0000   1.8142
 P, BAR            1.0000  0.55121
 T, K             2628.38  2318.03
 RHO, KG/CU M    1.1937-1 7.4609-2
 H, KJ/KG         1036.54   567.59
 U, KJ/KG          198.83  -171.21
 G, KJ/KG        -26485.5 -23704.8
 S, KJ/(KG)(K)    10.4711  10.4711

 M, (1/n)          26.087   26.087
 Cp, KJ/(KG)(K)    1.5201   1.5013
 GAMMAs            1.2653   1.2695
 SON VEL,M/SEC     1029.5    968.5
 MACH NUMBER        0.000    1.000

 TRANSPORT PROPERTIES (GASES ONLY)
   CONDUCTIVITY IN UNITS OF MILLIWATTS/(CM)(K)

 VISC,MILLIPOISE  0.82532  0.75599

  WITH FROZEN REACTIONS

 Cp, KJ/(KG)(K)    1.5201   1.5013
 CONDUCTIVITY      1.8727   1.6795
 PRANDTL NUMBER    0.6699   0.6757

 PERFORMANCE PARAMETERS

 Ae/At                      1.0000
 CSTAR, M/SEC               1384.0
 CF                         0.6998
 Ivac, M/SEC                1731.3
 Isp, M/SEC                  968.5

 MOLE FRACTIONS

 *Ar             0.00764   *CO             0.13171   *CO2            0.04507
 *H              0.00963   *H2             0.04988   H2O             0.11165
 *NO             0.00134   *N2             0.63624   *O              0.00064
 *OH             0.00563   *O2             0.00058

  * THERMODYNAMIC PROPERTIES FITTED TO 20000.K

    PRODUCTS WHICH WERE CONSIDERED BUT WHOSE MOLE FRACTIONS
    WERE LESS THAN 5.000000E-06 FOR ALL ASSIGNED CONDITIONS



 NOTE. WEIGHT FRACTION OF FUEL IN TOTAL FUELS AND OF OXIDANT IN TOTAL OXIDANTS






 O/F =   9.800000

                       EFFECTIVE FUEL     EFFECTIVE OXIDANT        MIXTURE
 ENTHALPY                  h(2)/R              h(1)/R               h0/R
 (KG-MOL)(K)/KG       -0.21813927E+03      0.16037597E+03      0.12532826E+03

 KG-FORM.WT./KG             bi(2)               bi(1)               b0i
  *C                   0.71722711E-01      0.11013248E-04      0.66509853E-02
  *H                   0.13746853E+00      0.00000000E+00      0.12728568E-01
  *N                   0.00000000E+00      0.53915890E-01      0.48923678E-01
  *O                   0.00000000E+00      0.14486046E-01      0.13144745E-01
  *Ar                  0.00000000E+00      0.32331996E-03      0.29338292E-03

 POINT ITN      T            C           H           N           O 
                    AR
   1    3    2642.649     -17.308     -11.739     -14.182     -18.475
                 -26.729





           THEORETICAL ROCKET PERFORMANCE ASSUMING FROZEN COMPOSITION

 Pin =    14.5 PSIA
 CASE =                

             REACTANT                    WT FRACTION      ENERGY      TEMP
                                          (SEE NOTE)     KJ/KG-MOL      K  
 FUEL        Jet-A(L)                     1.0000000   -303455.540    298.000
 OXIDANT     Air                          1.0000000     38623.465   1500.000

 O/F=    9.80000  %FUEL=  9.259259  R,EQ.RATIO= 1.496130  PHI,EQ.RATIO= 1.496886

                 CHAMBER   THROAT
 Pinf/P            1.0000   1.8137
 P, BAR            1.0000  0.55136
 T, K             2642.65  2331.41
 RHO, KG/CU M    1.1924-1 7.4520-2
 H, KJ/KG         1042.04   572.69
 U, KJ/KG          203.39  -167.19
 G, KJ/KG        -26565.7 -23783.5
 S, KJ/(KG)(K)    10.4470  10.4470

 M, (1/n)          26.200   26.200
 Cp, KJ/(KG)(K)    1.5169   1.4983
 GAMMAs            1.2646   1.2687
 SON VEL,M/SEC     1029.8    968.9
 MACH NUMBER        0.000    1.000

 TRANSPORT PROPERTIES (GASES ONLY)
   CONDUCTIVITY IN UNITS OF MILLIWATTS/(CM)(K)

 VISC,MILLIPOISE  0.82943  0.75989

  WITH FROZEN REACTIONS

 Cp, KJ/(KG)(K)    1.5169   1.4983
 CONDUCTIVITY      1.8716   1.6791
 PRANDTL NUMBER    0.6722   0.6781

 PERFORMANCE PARAMETERS

 Ae/At                      1.0000
 CSTAR, M/SEC               1385.0
 CF                         0.6995
 Ivac, M/SEC                1732.5
 Isp, M/SEC                  968.9

 MOLE FRACTIONS

 *Ar             0.00769   *CO             0.12703   *CO2            0.04723
 *H              0.00979   *H2             0.04606   H2O             0.11262
 *NO             0.00160   *N2             0.64009   *O              0.00079
 *OH             0.00634   *O2             0.00078

  * THERMODYNAMIC PROPERTIES FITTED TO 20000.K

    PRODUCTS WHICH WERE CONSIDERED BUT WHOSE MOLE FRACTIONS
    WERE LESS THAN 5.000000E-06 FOR ALL ASSIGNED CONDITIONS



 NOTE. WEIGHT FRACTION OF FUEL IN TOTAL FUELS AND OF OXIDANT IN TOTAL OXIDANTS






 O/F =  10.000000

                       EFFECTIVE FUEL     EFFECTIVE OXIDANT        MIXTURE
 ENTHALPY                  h(2)/R              h(1)/R               h0/R
 (KG-MOL)(K)/KG       -0.21813927E+03      0.16037597E+03      0.12596550E+03

 KG-FORM.WT./KG             bi(2)               bi(1)               b0i
  *C                   0.71722711E-01      0.11013248E-04      0.65302585E-02
  *H                   0.13746853E+00      0.00000000E+00      0.12497139E-01
  *N                   0.00000000E+00      0.53915890E-01      0.49014445E-01
  *O                   0.00000000E+00      0.14486046E-01      0.13169133E-01
  *Ar                  0.00000000E+00      0.32331996E-03      0.29392723E-03

 POINT ITN      T            C           H           N           O 
                    AR
   1    3    2655.317     -17.469     -11.787     -14.187     -18.345
                 -26.734





           THEORETICAL ROCKET PERFORMANCE ASSUMING FROZEN COMPOSITION

 Pin =    14.5 PSIA
 CASE =                

             REACTANT                    WT FRACTION      ENERGY      TEMP
                                          (SEE NOTE)     KJ/KG-MOL      K  
 FUEL        Jet-A(L)                     1.0000000   -303455.540    298.000
 OXIDANT     Air                          1.0000000     38623.465   1500.000

 O/F=   10.00000  %FUEL=  9.090909  R,EQ.RATIO= 1.466238  PHI,EQ.RATIO= 1.466948

                 CHAMBER   THROAT
 Pinf/P            1.0000   1.8133
 P, BAR            1.0000  0.55149
 T, K             2655.32  2343.31
 RHO, KG/CU M    1.1915-1 7.4462-2
 H, KJ/KG         1047.34   577.78
 U, KJ/KG          208.09  -162.86
 G, KJ/KG        -26630.3 -23847.7
 S, KJ/(KG)(K)    10.4235  10.4235

 M, (1/n)          26.306   26.306
 Cp, KJ/(KG)(K)    1.5138   1.4954
 GAMMAs            1.2639   1.2680
 SON VEL,M/SEC     1029.9    969.1
 MACH NUMBER        0.000    1.000

 TRANSPORT PROPERTIES (GASES ONLY)
   CONDUCTIVITY IN UNITS OF MILLIWATTS/(CM)(K)

 VISC,MILLIPOISE  0.83312  0.76341

  WITH FROZEN REACTIONS

 Cp, KJ/(KG)(K)    1.5138   1.4954
 CONDUCTIVITY      1.8700   1.6781
 PRANDTL NUMBER    0.6744   0.6803

 PERFORMANCE PARAMETERS

 Ae/At                      1.0000
 CSTAR, M/SEC               1385.8
 CF                         0.6993
 Ivac, M/SEC                1733.3
 Isp, M/SEC                  969.1

 MOLE FRACTIONS

 *Ar             0.00773   *CO             0.12245   *CO2            0.04934
 *H              0.00989   *H2             0.04256   H2O             0.11334
 *NO             0.00188   *N2             0.64375   *O              0.00096
 *OH             0.00706   *O2             0.00103

  * THERMODYNAMIC PROPERTIES FITTED TO 20000.K

    PRODUCTS WHICH WERE CONSIDERED BUT WHOSE MOLE FRACTIONS
    WERE LESS THAN 5.000000E-06 FOR ALL ASSIGNED CONDITIONS



 NOTE. WEIGHT FRACTION OF FUEL IN TOTAL FUELS AND OF OXIDANT IN TOTAL OXIDANTS



