
 *******************************************************************************

         NASA-GLENN CHEMICAL EQUILIBRIUM PROGRAM CEA2, MAY 21, 2004
                   BY  BONNIE MCBRIDE AND SANFORD GORDON
      REFS: NASA RP-1311, PART I, 1994 AND NASA RP-1311, PART II, 1996

 *******************************************************************************



 problem rocket hp
     p(bar) = 3
     o/f = 1, 2, 3, 4, 5, 6
 reac
     fuel = Jet-A(L) t(K) = 298.000
     ox = Air t(K) = 1500.000
 outp trans
 end

 OPTIONS: TP=F  HP=T  SP=F  TV=F  UV=F  SV=F  DETN=F  SHOCK=F  REFL=F  INCD=F
 RKT=T  FROZ=F  EQL=F  IONS=F  SIUNIT=T  DEBUGF=F  SHKDBG=F  DETDBG=F  TRNSPT=T

 TRACE= 0.00E+00  S/R= 0.000000E+00  H/R= 0.000000E+00  U/R= 0.000000E+00

 Pc,BAR =     3.000000

 Pc/P =

 SUBSONIC AREA RATIOS =

 SUPERSONIC AREA RATIOS =

 NFZ=  1  Mdot/Ac= 0.000000E+00  Ac/At= 0.000000E+00

 WARNING!!  AMOUNT MISSING FOR REACTANT  1.
 PROGRAM SETS WEIGHT PERCENT = 100. (REACT)

 WARNING!!  AMOUNT MISSING FOR REACTANT  2.
 PROGRAM SETS WEIGHT PERCENT = 100. (REACT)

    REACTANT          WT.FRAC   (ENERGY/R),K   TEMP,K  DENSITY
        EXPLODED FORMULA
 F: Jet-A(L)         1.000000  -0.364971E+05   298.00  0.0000
          C 12.00000  H 23.00000
 O: Air              1.000000   0.464531E+04  1500.00  0.0000
          N  1.56168  O  0.41959  AR 0.00937  C  0.00032

  SPECIES BEING CONSIDERED IN THIS SYSTEM
 (CONDENSED PHASE MAY HAVE NAME LISTED SEVERAL TIMES)
  LAST thermo.inp UPDATE:    9/09/04

  g 3/98  *Ar              g 7/97  *C               tpis79  *CH            
  g 4/02  CH2              g 4/02  CH3              g11/00  CH2OH          
  g 7/00  CH3O             g 8/99  CH4              g 7/00  CH3OH          
  srd 01  CH3OOH           g 8/99  *CN              g12/99  CNN            
  tpis79  *CO              g 9/99  *CO2             tpis91  COOH           
  tpis91  *C2              g 6/01  C2H              g 1/91  C2H2,acetylene 
  g 5/01  C2H2,vinylidene  g 4/02  CH2CO,ketene     g 3/02  O(CH)2O        
  srd 01  HO(CO)2OH        g 7/01  C2H3,vinyl       g 9/00  CH3CN          
  g 6/96  CH3CO,acetyl     g 1/00  C2H4             g 8/88  C2H4O,ethylen-o
  g 8/88  CH3CHO,ethanal   g 6/00  CH3COOH          srd 01  OHCH2COOH      
  g 7/00  C2H5             g 7/00  C2H6             g 8/88  CH3N2CH3       
  g 8/88  C2H5OH           g 7/00  CH3OCH3          srd 01  CH3O2CH3       
  g 7/00  CCN              tpis91  CNC              srd 01  OCCN           
  tpis79  C2N2             g 8/00  C2O              tpis79  *C3            
  n 4/98  C3H3,1-propynl   n 4/98  C3H3,2-propynl   g 2/00  C3H4,allene    
  g 1/00  C3H4,propyne     g 5/90  C3H4,cyclo-      g 3/01  C3H5,allyl     
  g 2/00  C3H6,propylene   g 1/00  C3H6,cyclo-      g 6/01  C3H6O,propylox 
  g 6/97  C3H6O,acetone    g 1/02  C3H6O,propanal   g 7/01  C3H7,n-propyl  
  g 9/85  C3H7,i-propyl    g 2/00  C3H8             g 2/00  C3H8O,1propanol
  g 2/00  C3H8O,2propanol  srd 01  CNCOCN           g 7/88  C3O2           
  g tpis  *C4              g 7/01  C4H2,butadiyne   g 8/00  C4H4,1,3-cyclo-
  n10/92  C4H6,butadiene   n10/93  C4H6,1butyne     n10/93  C4H6,2butyne   
  g 8/00  C4H6,cyclo-      n 4/88  C4H8,1-butene    n 4/88  C4H8,cis2-buten
  n 4/88  C4H8,tr2-butene  n 4/88  C4H8,isobutene   g 8/00  C4H8,cyclo-    
  g10/00  (CH3COOH)2       n10/84  C4H9,n-butyl     n10/84  C4H9,i-butyl   
  g 1/93  C4H9,s-butyl     g 1/93  C4H9,t-butyl     g12/00  C4H10,n-butane 
  g 8/00  C4H10,isobutane  g 6/01  C4N2             g 8/00  *C5            
  g 5/90  C5H6,1,3cyclo-   g 1/93  C5H8,cyclo-      n 4/87  C5H10,1-pentene
  g 2/01  C5H10,cyclo-     n10/84  C5H11,pentyl     g 1/93  C5H11,t-pentyl 
  n10/85  C5H12,n-pentane  n10/85  C5H12,i-pentane  n10/85  CH3C(CH3)2CH3  
  g 2/93  C6H2             g11/00  C6H5,phenyl      g 8/00  C6H5O,phenoxy  
  g 8/00  C6H6             g 8/00  C6H5OH,phenol    g 1/93  C6H10,cyclo-   
  n 4/87  C6H12,1-hexene   g 6/90  C6H12,cyclo-     n10/83  C6H13,n-hexyl  
  g 6/01  C6H14,n-hexane   g 7/01  C7H7,benzyl      g 1/93  C7H8           
  g12/00  C7H8O,cresol-mx  n 4/87  C7H14,1-heptene  n10/83  C7H15,n-heptyl 
  n10/85  C7H16,n-heptane  n10/85  C7H16,2-methylh  n 4/89  C8H8,styrene   
  n10/86  C8H10,ethylbenz  n 4/87  C8H16,1-octene   n10/83  C8H17,n-octyl  
  n 4/85  C8H18,n-octane   n 4/85  C8H18,isooctane  n10/83  C9H19,n-nonyl  
  g 3/01  C10H8,naphthale  n10/83  C10H21,n-decyl   g 8/00  C12H9,o-bipheny
  g 8/00  C12H10,biphenyl  g 6/97  *H               g 6/01  HCN            
  g 1/01  HCO              tpis89  HCCN             g 6/01  HCCO           
  g 6/01  HNC              g 7/00  HNCO             g10/01  HNO            
  tpis89  HNO2             g 5/99  HNO3             g 4/02  HO2            
  tpis78  *H2              g 5/01  HCHO,formaldehy  g 6/01  HCOOH          
  g 8/89  H2O              g 6/99  H2O2             g 6/01  (HCOOH)2       
  g 5/97  *N               g 6/01  NCO              g 4/99  *NH            
  g 3/01  NH2              tpis89  NH3              tpis89  NH2OH          
  tpis89  *NO              g 4/99  NO2              j12/64  NO3            
  tpis78  *N2              g 6/01  NCN              g 5/99  N2H2           
  tpis89  NH2NO2           g 4/99  N2H4             g 4/99  N2O            
  g 4/99  N2O3             tpis89  N2O4             g 4/99  N2O5           
  tpis89  N3               g 4/99  N3H              g 5/97  *O             
  g 4/02  *OH              tpis89  *O2              g 8/01  O3             
  n 4/83  C(gr)            n 4/83  C(gr)            n 4/83  C(gr)          
  g11/99  H2O(cr)          g 8/01  H2O(L)           g 8/01  H2O(L)         

 SPECIES WITH TRANSPORT PROPERTIES

        PURE SPECIES

  Ar                C                 CH4               CH3OH           
  CO                CO2             
  C2H2,acetylene    C2H4              C2H6              C2H5OH          
  C2N2              H               
  HCN               H2                H2O               N               
  NH3               NO              
  NO2               N2                N2O               N2O4            
  O                 OH              
  O2              

     BINARY INTERACTIONS

     C               O               
     CH4             O2              
     CO              CO2             
     CO              N2              
     CO              O2              
     CO2             H2              
     CO2             H2O             
     CO2             N2              
     CO2             O2              
     H               H2              
     H               N               
     H               N2              
     H               O               
     H2              H2O             
     H2              N2              
     H2              O2              
     H2O             N2              
     H2O             O2              
     N               NO              
     N               N2              
     N               O               
     N               O2              
     NO              O               
     N2              O               
     N2              O2              
     O               O2              


 O/F =   1.000000

                       EFFECTIVE FUEL     EFFECTIVE OXIDANT        MIXTURE
 ENTHALPY                  h(2)/R              h(1)/R               h0/R
 (KG-MOL)(K)/KG       -0.21813927E+03      0.16037597E+03     -0.28881651E+02

 KG-FORM.WT./KG             bi(2)               bi(1)               b0i
  *C                   0.71722711E-01      0.11013248E-04      0.35866862E-01
  *H                   0.13746853E+00      0.00000000E+00      0.68734265E-01
  *N                   0.00000000E+00      0.53915890E-01      0.26957945E-01
  *O                   0.00000000E+00      0.14486046E-01      0.72430230E-02
  *Ar                  0.00000000E+00      0.32331996E-03      0.16165998E-03

 POINT ITN      T            C           H           N           O 
                    AR
   1   23     992.740       3.986      -9.552     -12.387     -43.515
                 -24.236
 ADD  C(gr)          
   1    9     973.178      -1.484      -8.533     -12.476     -39.320
                 -24.431





           THEORETICAL ROCKET PERFORMANCE ASSUMING FROZEN COMPOSITION

 Pin =    43.5 PSIA
 CASE =                

             REACTANT                    WT FRACTION      ENERGY      TEMP
                                          (SEE NOTE)     KJ/KG-MOL      K  
 FUEL        Jet-A(L)                     1.0000000   -303455.540    298.000
 OXIDANT     Air                          1.0000000     38623.465   1500.000

 O/F=    1.00000  %FUEL= 50.000000  R,EQ.RATIO=14.648698  PHI,EQ.RATIO=14.669483

                 CHAMBER   THROAT
 Pinf/P            1.0000   1.7811
 P, BAR            3.0000   1.6844
 T, K              973.18   879.94
 RHO, KG/CU M    7.8078-1 4.8483-1
 H, KJ/KG         -240.14  -451.17
 U, KJ/KG         -624.37  -798.59
 G, KJ/KG        -10234.3 -9487.80
 S, KJ/(KG)(K)    10.2696  10.2696

 M, (1/n)          21.059   21.059
 MW, MOL WT        13.282   13.282
 Cp, KJ/(KG)(K)    2.2932   2.2325
 GAMMAs            1.2080   1.2148
 SON VEL,M/SEC      681.3    649.7
 MACH NUMBER        0.000    1.000

 TRANSPORT PROPERTIES (GASES ONLY)
   CONDUCTIVITY IN UNITS OF MILLIWATTS/(CM)(K)

 VISC,MILLIPOISE  0.37480  0.34978

  WITH FROZEN REACTIONS

 Cp, KJ/(KG)(K)    2.5489   2.4900
 CONDUCTIVITY      1.8124   1.6690
 PRANDTL NUMBER    0.5271   0.5218

 PERFORMANCE PARAMETERS

 Ae/At                     1.00000
 CSTAR, M/SEC                952.5
 CF                         0.6821
 Ivac, M/SEC                1184.4
 Isp, M/SEC                  649.7

 MOLE FRACTIONS

 *Ar             0.00215   CH4             0.05690   *CO             0.04187
 *CO2            0.00833   *H2             0.30465   H2O             0.03766
 NH3             0.00024   *N2             0.17891   C(gr)           0.36928

  * THERMODYNAMIC PROPERTIES FITTED TO 20000.K

    PRODUCTS WHICH WERE CONSIDERED BUT WHOSE MOLE FRACTIONS
    WERE LESS THAN 5.000000E-06 FOR ALL ASSIGNED CONDITIONS



 NOTE. WEIGHT FRACTION OF FUEL IN TOTAL FUELS AND OF OXIDANT IN TOTAL OXIDANTS






 O/F =   2.000000

                       EFFECTIVE FUEL     EFFECTIVE OXIDANT        MIXTURE
 ENTHALPY                  h(2)/R              h(1)/R               h0/R
 (KG-MOL)(K)/KG       -0.21813927E+03      0.16037597E+03      0.34204224E+02

 KG-FORM.WT./KG             bi(2)               bi(1)               b0i
  *C                   0.71722711E-01      0.11013248E-04      0.23914913E-01
  *H                   0.13746853E+00      0.00000000E+00      0.45822843E-01
  *N                   0.00000000E+00      0.53915890E-01      0.35943927E-01
  *O                   0.00000000E+00      0.14486046E-01      0.96573640E-02
  *Ar                  0.00000000E+00      0.32331996E-03      0.21554664E-03

 POINT ITN      T            C           H           N           O 
                    AR
   1    5    1144.794      -1.725      -8.802     -12.567     -36.489
                 -24.473





           THEORETICAL ROCKET PERFORMANCE ASSUMING FROZEN COMPOSITION

 Pin =    43.5 PSIA
 CASE =                

             REACTANT                    WT FRACTION      ENERGY      TEMP
                                          (SEE NOTE)     KJ/KG-MOL      K  
 FUEL        Jet-A(L)                     1.0000000   -303455.540    298.000
 OXIDANT     Air                          1.0000000     38623.465   1500.000

 O/F=    2.00000  %FUEL= 33.333333  R,EQ.RATIO= 7.325109  PHI,EQ.RATIO= 7.334742

                 CHAMBER   THROAT
 Pinf/P            1.0000   1.8167
 P, BAR            3.0000   1.6514
 T, K             1144.79  1008.71
 RHO, KG/CU M    6.3886-1 3.9911-1
 H, KJ/KG          284.39   20.997
 U, KJ/KG         -185.20  -392.77
 G, KJ/KG        -11935.8 -10746.5
 S, KJ/(KG)(K)    10.6746  10.6746

 M, (1/n)          20.270   20.270
 MW, MOL WT        15.702   15.702
 Cp, KJ/(KG)(K)    1.9583   1.9119
 GAMMAs            1.2650   1.2732
 SON VEL,M/SEC      770.7    725.8
 MACH NUMBER        0.000    1.000

 TRANSPORT PROPERTIES (GASES ONLY)
   CONDUCTIVITY IN UNITS OF MILLIWATTS/(CM)(K)

 VISC,MILLIPOISE  0.43760  0.40248

  WITH FROZEN REACTIONS

 Cp, KJ/(KG)(K)    1.9763   1.9343
 CONDUCTIVITY      1.7162   1.5524
 PRANDTL NUMBER    0.5039   0.5015

 PERFORMANCE PARAMETERS

 Ae/At                      1.0000
 CSTAR, M/SEC               1035.6
 CF                         0.7008
 Ivac, M/SEC                1295.9
 Isp, M/SEC                  725.8

 MOLE FRACTIONS

 *Ar             0.00338   CH4             0.01037   *CO             0.13670
 *CO2            0.00310   HCN             0.00001   *H2             0.33011
 H2O             0.00875   NH3             0.00010   *N2             0.28214
 C(gr)           0.22534

  * THERMODYNAMIC PROPERTIES FITTED TO 20000.K

    PRODUCTS WHICH WERE CONSIDERED BUT WHOSE MOLE FRACTIONS
    WERE LESS THAN 5.000000E-06 FOR ALL ASSIGNED CONDITIONS



 NOTE. WEIGHT FRACTION OF FUEL IN TOTAL FUELS AND OF OXIDANT IN TOTAL OXIDANTS






 O/F =   3.000000

                       EFFECTIVE FUEL     EFFECTIVE OXIDANT        MIXTURE
 ENTHALPY                  h(2)/R              h(1)/R               h0/R
 (KG-MOL)(K)/KG       -0.21813927E+03      0.16037597E+03      0.65747161E+02

 KG-FORM.WT./KG             bi(2)               bi(1)               b0i
  *C                   0.71722711E-01      0.11013248E-04      0.17938938E-01
  *H                   0.13746853E+00      0.00000000E+00      0.34367133E-01
  *N                   0.00000000E+00      0.53915890E-01      0.40436917E-01
  *O                   0.00000000E+00      0.14486046E-01      0.10864534E-01
  *Ar                  0.00000000E+00      0.32331996E-03      0.24248997E-03

 POINT ITN      T            C           H           N           O 
                    AR
   1    5    1373.558      -2.030      -9.149     -12.759     -34.545
                 -24.682





           THEORETICAL ROCKET PERFORMANCE ASSUMING FROZEN COMPOSITION

 Pin =    43.5 PSIA
 CASE =                

             REACTANT                    WT FRACTION      ENERGY      TEMP
                                          (SEE NOTE)     KJ/KG-MOL      K  
 FUEL        Jet-A(L)                     1.0000000   -303455.540    298.000
 OXIDANT     Air                          1.0000000     38623.465   1500.000

 O/F=    3.00000  %FUEL= 25.000000  R,EQ.RATIO= 4.883913  PHI,EQ.RATIO= 4.889828

                 CHAMBER   THROAT
 Pinf/P            1.0000   1.8318
 P, BAR            3.0000   1.6377
 T, K             1373.56  1197.25
 RHO, KG/CU M    5.4333-1 3.4029-1
 H, KJ/KG          546.66   234.30
 U, KJ/KG         -5.4987  -246.98
 G, KJ/KG        -14253.8 -12666.4
 S, KJ/(KG)(K)    10.7752  10.7752

 M, (1/n)          20.683   20.683
 MW, MOL WT        18.053   18.053
 Cp, KJ/(KG)(K)    1.7914   1.7508
 GAMMAs            1.2893   1.2980
 SON VEL,M/SEC      843.7    790.4
 MACH NUMBER        0.000    1.000

 TRANSPORT PROPERTIES (GASES ONLY)
   CONDUCTIVITY IN UNITS OF MILLIWATTS/(CM)(K)

 VISC,MILLIPOISE  0.50030  0.45741

  WITH FROZEN REACTIONS

 Cp, KJ/(KG)(K)    1.7763   1.7376
 CONDUCTIVITY      1.7009   1.5204
 PRANDTL NUMBER    0.5225   0.5228

 PERFORMANCE PARAMETERS

 Ae/At                      1.0000
 CSTAR, M/SEC               1115.4
 CF                         0.7086
 Ivac, M/SEC                1399.3
 Isp, M/SEC                  790.4

 MOLE FRACTIONS

 *Ar             0.00438   CH4             0.00163   *CO             0.19459
 *CO2            0.00029   HCN             0.00016   *H2             0.30587
 H2O             0.00095   NH3             0.00003   *N2             0.36491
 C(gr)           0.12717

  * THERMODYNAMIC PROPERTIES FITTED TO 20000.K

    PRODUCTS WHICH WERE CONSIDERED BUT WHOSE MOLE FRACTIONS
    WERE LESS THAN 5.000000E-06 FOR ALL ASSIGNED CONDITIONS



 NOTE. WEIGHT FRACTION OF FUEL IN TOTAL FUELS AND OF OXIDANT IN TOTAL OXIDANTS






 O/F =   4.000000

                       EFFECTIVE FUEL     EFFECTIVE OXIDANT        MIXTURE
 ENTHALPY                  h(2)/R              h(1)/R               h0/R
 (KG-MOL)(K)/KG       -0.21813927E+03      0.16037597E+03      0.84672923E+02

 KG-FORM.WT./KG             bi(2)               bi(1)               b0i
  *C                   0.71722711E-01      0.11013248E-04      0.14353353E-01
  *H                   0.13746853E+00      0.00000000E+00      0.27493706E-01
  *N                   0.00000000E+00      0.53915890E-01      0.43132712E-01
  *O                   0.00000000E+00      0.14486046E-01      0.11588837E-01
  *Ar                  0.00000000E+00      0.32331996E-03      0.25865596E-03

 POINT ITN      T            C           H           N           O 
                    AR
   1    4    1580.720      -2.289      -9.446     -12.929     -33.355
                 -24.872





           THEORETICAL ROCKET PERFORMANCE ASSUMING FROZEN COMPOSITION

 Pin =    43.5 PSIA
 CASE =                

             REACTANT                    WT FRACTION      ENERGY      TEMP
                                          (SEE NOTE)     KJ/KG-MOL      K  
 FUEL        Jet-A(L)                     1.0000000   -303455.540    298.000
 OXIDANT     Air                          1.0000000     38623.465   1500.000

 O/F=    4.00000  %FUEL= 20.000000  R,EQ.RATIO= 3.663315  PHI,EQ.RATIO= 3.667371

                 CHAMBER   THROAT
 Pinf/P            1.0000   1.8396
 P, BAR            3.0000   1.6308
 T, K             1580.72  1370.09
 RHO, KG/CU M    4.8436-1 3.0377-1
 H, KJ/KG          704.01   352.14
 U, KJ/KG          84.642  -184.71
 G, KJ/KG        -16339.8 -14420.7
 S, KJ/(KG)(K)    10.7823  10.7823

 M, (1/n)          21.220   21.220
 MW, MOL WT        20.062   20.062
 Cp, KJ/(KG)(K)    1.6880   1.6521
 GAMMAs            1.3023   1.3109
 SON VEL,M/SEC      898.1    838.9
 MACH NUMBER        0.000    1.000

 TRANSPORT PROPERTIES (GASES ONLY)
   CONDUCTIVITY IN UNITS OF MILLIWATTS/(CM)(K)

 VISC,MILLIPOISE  0.55273  0.50322

  WITH FROZEN REACTIONS

 Cp, KJ/(KG)(K)    1.6772   1.6419
 CONDUCTIVITY      1.7010   1.5105
 PRANDTL NUMBER    0.5450   0.5470

 PERFORMANCE PARAMETERS

 Ae/At                      1.0000
 CSTAR, M/SEC               1177.2
 CF                         0.7126
 Ivac, M/SEC                1478.8
 Isp, M/SEC                  838.9

 MOLE FRACTIONS

 *Ar             0.00519   CH4             0.00043   *CO             0.23218
 *CO2            0.00006   C2H2,acetylene  0.00001   *H              0.00001
 HCN             0.00072   HNC             0.00001   *H2             0.27433
 H2O             0.00020   NH3             0.00001   *N2             0.43230
 C(gr)           0.05454

  * THERMODYNAMIC PROPERTIES FITTED TO 20000.K

    PRODUCTS WHICH WERE CONSIDERED BUT WHOSE MOLE FRACTIONS
    WERE LESS THAN 5.000000E-06 FOR ALL ASSIGNED CONDITIONS



 NOTE. WEIGHT FRACTION OF FUEL IN TOTAL FUELS AND OF OXIDANT IN TOTAL OXIDANTS






 O/F =   5.000000

                       EFFECTIVE FUEL     EFFECTIVE OXIDANT        MIXTURE
 ENTHALPY                  h(2)/R              h(1)/R               h0/R
 (KG-MOL)(K)/KG       -0.21813927E+03      0.16037597E+03      0.97290098E+02

 KG-FORM.WT./KG             bi(2)               bi(1)               b0i
  *C                   0.71722711E-01      0.11013248E-04      0.11962963E-01
  *H                   0.13746853E+00      0.00000000E+00      0.22911422E-01
  *N                   0.00000000E+00      0.53915890E-01      0.44929908E-01
  *O                   0.00000000E+00      0.14486046E-01      0.12071705E-01
  *Ar                  0.00000000E+00      0.32331996E-03      0.26943330E-03

 POINT ITN      T            C           H           N           O 
                    AR
   1    4    1738.508      -2.476      -9.671     -13.052     -32.651
                 -25.007
 REMOVE  C(gr)          
   1    5    1754.164      -5.805      -9.685     -13.064     -29.292
                 -25.024





           THEORETICAL ROCKET PERFORMANCE ASSUMING FROZEN COMPOSITION

 Pin =    43.5 PSIA
 CASE =                

             REACTANT                    WT FRACTION      ENERGY      TEMP
                                          (SEE NOTE)     KJ/KG-MOL      K  
 FUEL        Jet-A(L)                     1.0000000   -303455.540    298.000
 OXIDANT     Air                          1.0000000     38623.465   1500.000

 O/F=    5.00000  %FUEL= 16.666667  R,EQ.RATIO= 2.930956  PHI,EQ.RATIO= 2.933897

                 CHAMBER   THROAT
 Pinf/P            1.0000   1.8449
 P, BAR            3.0000   1.6261
 T, K             1754.16  1514.54
 RHO, KG/CU M    4.4570-1 2.7980-1
 H, KJ/KG          808.92   425.44
 U, KJ/KG          135.82  -155.72
 G, KJ/KG        -18066.2 -15871.2
 S, KJ/(KG)(K)    10.7602  10.7602

 M, (1/n)          21.668   21.668
 MW, MOL WT        21.668   21.668
 Cp, KJ/(KG)(K)    1.6157   1.5837
 GAMMAs            1.3115   1.3198
 SON VEL,M/SEC      939.5    875.8
 MACH NUMBER        0.000    1.000

 TRANSPORT PROPERTIES (GASES ONLY)
   CONDUCTIVITY IN UNITS OF MILLIWATTS/(CM)(K)

 VISC,MILLIPOISE  0.59522  0.54007

  WITH FROZEN REACTIONS

 Cp, KJ/(KG)(K)    1.6157   1.5837
 CONDUCTIVITY      1.7054   1.5081
 PRANDTL NUMBER    0.5639   0.5671

 PERFORMANCE PARAMETERS

 Ae/At                      1.0000
 CSTAR, M/SEC               1224.3
 CF                         0.7153
 Ivac, M/SEC                1539.4
 Isp, M/SEC                  875.8

 MOLE FRACTIONS

 *Ar             0.00584   CH4             0.00001   *CO             0.25859
 *CO2            0.00055   *H              0.00007   HCN             0.00007
 *H2             0.24624   H2O             0.00189   NH3             0.00001
 *N2             0.48674

  * THERMODYNAMIC PROPERTIES FITTED TO 20000.K

    PRODUCTS WHICH WERE CONSIDERED BUT WHOSE MOLE FRACTIONS
    WERE LESS THAN 5.000000E-06 FOR ALL ASSIGNED CONDITIONS



 NOTE. WEIGHT FRACTION OF FUEL IN TOTAL FUELS AND OF OXIDANT IN TOTAL OXIDANTS






 O/F =   6.000000

                       EFFECTIVE FUEL     EFFECTIVE OXIDANT        MIXTURE
 ENTHALPY                  h(2)/R              h(1)/R               h0/R
 (KG-MOL)(K)/KG       -0.21813927E+03      0.16037597E+03      0.10630237E+03

 KG-FORM.WT./KG             bi(2)               bi(1)               b0i
  *C                   0.71722711E-01      0.11013248E-04      0.10255542E-01
  *H                   0.13746853E+00      0.00000000E+00      0.19638361E-01
  *N                   0.00000000E+00      0.53915890E-01      0.46213620E-01
  *O                   0.00000000E+00      0.14486046E-01      0.12416611E-01
  *Ar                  0.00000000E+00      0.32331996E-03      0.27713139E-03

 POINT ITN      T            C           H           N           O 
                    AR
   1    6    2058.789     -10.950     -10.077     -13.287     -23.700
                 -25.273





           THEORETICAL ROCKET PERFORMANCE ASSUMING FROZEN COMPOSITION

 Pin =    43.5 PSIA
 CASE =                

             REACTANT                    WT FRACTION      ENERGY      TEMP
                                          (SEE NOTE)     KJ/KG-MOL      K  
 FUEL        Jet-A(L)                     1.0000000   -303455.540    298.000
 OXIDANT     Air                          1.0000000     38623.465   1500.000

 O/F=    6.00000  %FUEL= 14.285714  R,EQ.RATIO= 2.442717  PHI,EQ.RATIO= 2.444914

                 CHAMBER   THROAT
 Pinf/P            1.0000   1.8332
 P, BAR            3.0000   1.6365
 T, K             2058.79  1791.95
 RHO, KG/CU M    4.0315-1 2.5267-1
 H, KJ/KG          883.85   462.69
 U, KJ/KG          139.71  -185.00
 G, KJ/KG        -20977.7 -18565.4
 S, KJ/(KG)(K)    10.6187  10.6187

 M, (1/n)          23.003   23.003
 MW, MOL WT        23.003   23.003
 Cp, KJ/(KG)(K)    1.5914   1.5641
 GAMMAs            1.2939   1.3005
 SON VEL,M/SEC      981.2    917.8
 MACH NUMBER        0.000    1.000

 TRANSPORT PROPERTIES (GASES ONLY)
   CONDUCTIVITY IN UNITS OF MILLIWATTS/(CM)(K)

 VISC,MILLIPOISE  0.67354  0.61310

  WITH FROZEN REACTIONS

 Cp, KJ/(KG)(K)    1.5914   1.5641
 CONDUCTIVITY      1.7959   1.5950
 PRANDTL NUMBER    0.5968   0.6012

 PERFORMANCE PARAMETERS

 Ae/At                      1.0000
 CSTAR, M/SEC               1293.7
 CF                         0.7094
 Ivac, M/SEC                1623.5
 Isp, M/SEC                  917.8

 MOLE FRACTIONS

 *Ar             0.00637   *CO             0.22586   *CO2            0.01005
 *H              0.00060   *H2             0.18591   H2O             0.03965
 *N2             0.53153   *OH             0.00002

  * THERMODYNAMIC PROPERTIES FITTED TO 20000.K

    PRODUCTS WHICH WERE CONSIDERED BUT WHOSE MOLE FRACTIONS
    WERE LESS THAN 5.000000E-06 FOR ALL ASSIGNED CONDITIONS



 NOTE. WEIGHT FRACTION OF FUEL IN TOTAL FUELS AND OF OXIDANT IN TOTAL OXIDANTS



