
 *******************************************************************************

         NASA-GLENN CHEMICAL EQUILIBRIUM PROGRAM CEA2, MAY 21, 2004
                   BY  BONNIE MCBRIDE AND SANFORD GORDON
      REFS: NASA RP-1311, PART I, 1994 AND NASA RP-1311, PART II, 1996

 *******************************************************************************



 problem rocket hp
     p(bar) = 1
     o/f = 8, 8.2, 8.4, 8.6, 8.8, 9
 reac
     fuel = Jet-A(L) t(K) = 298.000
     ox = Air t(K) = 1500.000
 outp trans
 end

 OPTIONS: TP=F  HP=T  SP=F  TV=F  UV=F  SV=F  DETN=F  SHOCK=F  REFL=F  INCD=F
 RKT=T  FROZ=F  EQL=F  IONS=F  SIUNIT=T  DEBUGF=F  SHKDBG=F  DETDBG=F  TRNSPT=T

 TRACE= 0.00E+00  S/R= 0.000000E+00  H/R= 0.000000E+00  U/R= 0.000000E+00

 Pc,BAR =     1.000000

 Pc/P =

 SUBSONIC AREA RATIOS =

 SUPERSONIC AREA RATIOS =

 NFZ=  1  Mdot/Ac= 0.000000E+00  Ac/At= 0.000000E+00

 WARNING!!  AMOUNT MISSING FOR REACTANT  1.
 PROGRAM SETS WEIGHT PERCENT = 100. (REACT)

 WARNING!!  AMOUNT MISSING FOR REACTANT  2.
 PROGRAM SETS WEIGHT PERCENT = 100. (REACT)

    REACTANT          WT.FRAC   (ENERGY/R),K   TEMP,K  DENSITY
        EXPLODED FORMULA
 F: Jet-A(L)         1.000000  -0.364971E+05   298.00  0.0000
          C 12.00000  H 23.00000
 O: Air              1.000000   0.464531E+04  1500.00  0.0000
          N  1.56168  O  0.41959  AR 0.00937  C  0.00032

  SPECIES BEING CONSIDERED IN THIS SYSTEM
 (CONDENSED PHASE MAY HAVE NAME LISTED SEVERAL TIMES)
  LAST thermo.inp UPDATE:    9/09/04

  g 3/98  *Ar              g 7/97  *C               tpis79  *CH            
  g 4/02  CH2              g 4/02  CH3              g11/00  CH2OH          
  g 7/00  CH3O             g 8/99  CH4              g 7/00  CH3OH          
  srd 01  CH3OOH           g 8/99  *CN              g12/99  CNN            
  tpis79  *CO              g 9/99  *CO2             tpis91  COOH           
  tpis91  *C2              g 6/01  C2H              g 1/91  C2H2,acetylene 
  g 5/01  C2H2,vinylidene  g 4/02  CH2CO,ketene     g 3/02  O(CH)2O        
  srd 01  HO(CO)2OH        g 7/01  C2H3,vinyl       g 9/00  CH3CN          
  g 6/96  CH3CO,acetyl     g 1/00  C2H4             g 8/88  C2H4O,ethylen-o
  g 8/88  CH3CHO,ethanal   g 6/00  CH3COOH          srd 01  OHCH2COOH      
  g 7/00  C2H5             g 7/00  C2H6             g 8/88  CH3N2CH3       
  g 8/88  C2H5OH           g 7/00  CH3OCH3          srd 01  CH3O2CH3       
  g 7/00  CCN              tpis91  CNC              srd 01  OCCN           
  tpis79  C2N2             g 8/00  C2O              tpis79  *C3            
  n 4/98  C3H3,1-propynl   n 4/98  C3H3,2-propynl   g 2/00  C3H4,allene    
  g 1/00  C3H4,propyne     g 5/90  C3H4,cyclo-      g 3/01  C3H5,allyl     
  g 2/00  C3H6,propylene   g 1/00  C3H6,cyclo-      g 6/01  C3H6O,propylox 
  g 6/97  C3H6O,acetone    g 1/02  C3H6O,propanal   g 7/01  C3H7,n-propyl  
  g 9/85  C3H7,i-propyl    g 2/00  C3H8             g 2/00  C3H8O,1propanol
  g 2/00  C3H8O,2propanol  srd 01  CNCOCN           g 7/88  C3O2           
  g tpis  *C4              g 7/01  C4H2,butadiyne   g 8/00  C4H4,1,3-cyclo-
  n10/92  C4H6,butadiene   n10/93  C4H6,1butyne     n10/93  C4H6,2butyne   
  g 8/00  C4H6,cyclo-      n 4/88  C4H8,1-butene    n 4/88  C4H8,cis2-buten
  n 4/88  C4H8,tr2-butene  n 4/88  C4H8,isobutene   g 8/00  C4H8,cyclo-    
  g10/00  (CH3COOH)2       n10/84  C4H9,n-butyl     n10/84  C4H9,i-butyl   
  g 1/93  C4H9,s-butyl     g 1/93  C4H9,t-butyl     g12/00  C4H10,n-butane 
  g 8/00  C4H10,isobutane  g 6/01  C4N2             g 8/00  *C5            
  g 5/90  C5H6,1,3cyclo-   g 1/93  C5H8,cyclo-      n 4/87  C5H10,1-pentene
  g 2/01  C5H10,cyclo-     n10/84  C5H11,pentyl     g 1/93  C5H11,t-pentyl 
  n10/85  C5H12,n-pentane  n10/85  C5H12,i-pentane  n10/85  CH3C(CH3)2CH3  
  g 2/93  C6H2             g11/00  C6H5,phenyl      g 8/00  C6H5O,phenoxy  
  g 8/00  C6H6             g 8/00  C6H5OH,phenol    g 1/93  C6H10,cyclo-   
  n 4/87  C6H12,1-hexene   g 6/90  C6H12,cyclo-     n10/83  C6H13,n-hexyl  
  g 6/01  C6H14,n-hexane   g 7/01  C7H7,benzyl      g 1/93  C7H8           
  g12/00  C7H8O,cresol-mx  n 4/87  C7H14,1-heptene  n10/83  C7H15,n-heptyl 
  n10/85  C7H16,n-heptane  n10/85  C7H16,2-methylh  n 4/89  C8H8,styrene   
  n10/86  C8H10,ethylbenz  n 4/87  C8H16,1-octene   n10/83  C8H17,n-octyl  
  n 4/85  C8H18,n-octane   n 4/85  C8H18,isooctane  n10/83  C9H19,n-nonyl  
  g 3/01  C10H8,naphthale  n10/83  C10H21,n-decyl   g 8/00  C12H9,o-bipheny
  g 8/00  C12H10,biphenyl  g 6/97  *H               g 6/01  HCN            
  g 1/01  HCO              tpis89  HCCN             g 6/01  HCCO           
  g 6/01  HNC              g 7/00  HNCO             g10/01  HNO            
  tpis89  HNO2             g 5/99  HNO3             g 4/02  HO2            
  tpis78  *H2              g 5/01  HCHO,formaldehy  g 6/01  HCOOH          
  g 8/89  H2O              g 6/99  H2O2             g 6/01  (HCOOH)2       
  g 5/97  *N               g 6/01  NCO              g 4/99  *NH            
  g 3/01  NH2              tpis89  NH3              tpis89  NH2OH          
  tpis89  *NO              g 4/99  NO2              j12/64  NO3            
  tpis78  *N2              g 6/01  NCN              g 5/99  N2H2           
  tpis89  NH2NO2           g 4/99  N2H4             g 4/99  N2O            
  g 4/99  N2O3             tpis89  N2O4             g 4/99  N2O5           
  tpis89  N3               g 4/99  N3H              g 5/97  *O             
  g 4/02  *OH              tpis89  *O2              g 8/01  O3             
  n 4/83  C(gr)            n 4/83  C(gr)            n 4/83  C(gr)          
  g11/99  H2O(cr)          g 8/01  H2O(L)           g 8/01  H2O(L)         

 SPECIES WITH TRANSPORT PROPERTIES

        PURE SPECIES

  Ar                C                 CH4               CH3OH           
  CO                CO2             
  C2H2,acetylene    C2H4              C2H6              C2H5OH          
  C2N2              H               
  HCN               H2                H2O               N               
  NH3               NO              
  NO2               N2                N2O               N2O4            
  O                 OH              
  O2              

     BINARY INTERACTIONS

     C               O               
     CH4             O2              
     CO              CO2             
     CO              N2              
     CO              O2              
     CO2             H2              
     CO2             H2O             
     CO2             N2              
     CO2             O2              
     H               H2              
     H               N               
     H               N2              
     H               O               
     H2              H2O             
     H2              N2              
     H2              O2              
     H2O             N2              
     H2O             O2              
     N               NO              
     N               N2              
     N               O               
     N               O2              
     NO              O               
     N2              O               
     N2              O2              
     O               O2              


 O/F =   8.000000

                       EFFECTIVE FUEL     EFFECTIVE OXIDANT        MIXTURE
 ENTHALPY                  h(2)/R              h(1)/R               h0/R
 (KG-MOL)(K)/KG       -0.21813927E+03      0.16037597E+03      0.11831872E+03

 KG-FORM.WT./KG             bi(2)               bi(1)               b0i
  *C                   0.71722711E-01      0.11013248E-04      0.79789797E-02
  *H                   0.13746853E+00      0.00000000E+00      0.15274281E-01
  *N                   0.00000000E+00      0.53915890E-01      0.47925235E-01
  *O                   0.00000000E+00      0.14486046E-01      0.12876485E-01
  *Ar                  0.00000000E+00      0.32331996E-03      0.28739552E-03

 POINT ITN      T            C           H           N           O 
                    AR
   1   24    2452.434     -15.472     -11.254     -14.081     -20.131
                 -26.632





           THEORETICAL ROCKET PERFORMANCE ASSUMING FROZEN COMPOSITION

 Pin =    14.5 PSIA
 CASE =                

             REACTANT                    WT FRACTION      ENERGY      TEMP
                                          (SEE NOTE)     KJ/KG-MOL      K  
 FUEL        Jet-A(L)                     1.0000000   -303455.540    298.000
 OXIDANT     Air                          1.0000000     38623.465   1500.000

 O/F=    8.00000  %FUEL= 11.111111  R,EQ.RATIO= 1.832418  PHI,EQ.RATIO= 1.833685

                 CHAMBER   THROAT
 Pinf/P            1.0000   1.8199
 P, BAR            1.0000  0.54948
 T, K             2452.43  2154.27
 RHO, KG/CU M    1.2253-1 7.6646-2
 H, KJ/KG          983.76   525.36
 U, KJ/KG          167.63  -191.55
 G, KJ/KG        -25224.7 -22496.7
 S, KJ/(KG)(K)    10.6867  10.6867

 M, (1/n)          24.985   24.985
 Cp, KJ/(KG)(K)    1.5477   1.5263
 GAMMAs            1.2739   1.2788
 SON VEL,M/SEC     1019.6    957.5
 MACH NUMBER        0.000    1.000

 TRANSPORT PROPERTIES (GASES ONLY)
   CONDUCTIVITY IN UNITS OF MILLIWATTS/(CM)(K)

 VISC,MILLIPOISE  0.77704  0.71028

  WITH FROZEN REACTIONS

 Cp, KJ/(KG)(K)    1.5477   1.5263
 CONDUCTIVITY      1.8624   1.6647
 PRANDTL NUMBER    0.6457   0.6512

 PERFORMANCE PARAMETERS

 Ae/At                      1.0000
 CSTAR, M/SEC               1362.6
 CF                         0.7027
 Ivac, M/SEC                1706.2
 Isp, M/SEC                  957.5

 MOLE FRACTIONS

 *Ar             0.00718   *CO             0.17145   *CO2            0.02790
 *H              0.00624   *H2             0.09417   H2O             0.09285
 *NO             0.00019   *N2             0.59861   *O              0.00005
 *OH             0.00133   *O2             0.00002

  * THERMODYNAMIC PROPERTIES FITTED TO 20000.K

    PRODUCTS WHICH WERE CONSIDERED BUT WHOSE MOLE FRACTIONS
    WERE LESS THAN 5.000000E-06 FOR ALL ASSIGNED CONDITIONS



 NOTE. WEIGHT FRACTION OF FUEL IN TOTAL FUELS AND OF OXIDANT IN TOTAL OXIDANTS






 O/F =   8.200000

                       EFFECTIVE FUEL     EFFECTIVE OXIDANT        MIXTURE
 ENTHALPY                  h(2)/R              h(1)/R               h0/R
 (KG-MOL)(K)/KG       -0.21813927E+03      0.16037597E+03      0.11923301E+03

 KG-FORM.WT./KG             bi(2)               bi(1)               b0i
  *C                   0.71722711E-01      0.11013248E-04      0.78057630E-02
  *H                   0.13746853E+00      0.00000000E+00      0.14942232E-01
  *N                   0.00000000E+00      0.53915890E-01      0.48055467E-01
  *O                   0.00000000E+00      0.14486046E-01      0.12911476E-01
  *Ar                  0.00000000E+00      0.32331996E-03      0.28817648E-03

 POINT ITN      T            C           H           N           O 
                    AR
   1    3    2480.610     -15.714     -11.312     -14.097     -19.899
                 -26.648





           THEORETICAL ROCKET PERFORMANCE ASSUMING FROZEN COMPOSITION

 Pin =    14.5 PSIA
 CASE =                

             REACTANT                    WT FRACTION      ENERGY      TEMP
                                          (SEE NOTE)     KJ/KG-MOL      K  
 FUEL        Jet-A(L)                     1.0000000   -303455.540    298.000
 OXIDANT     Air                          1.0000000     38623.465   1500.000

 O/F=    8.20000  %FUEL= 10.869565  R,EQ.RATIO= 1.787762  PHI,EQ.RATIO= 1.788961

                 CHAMBER   THROAT
 Pinf/P            1.0000   1.8190
 P, BAR            1.0000  0.54975
 T, K             2480.61  2180.39
 RHO, KG/CU M    1.2191-1 7.6247-2
 H, KJ/KG          991.36   530.87
 U, KJ/KG          171.07  -190.15
 G, KJ/KG        -25445.6 -22706.5
 S, KJ/(KG)(K)    10.6574  10.6574

 M, (1/n)          25.144   25.144
 Cp, KJ/(KG)(K)    1.5439   1.5229
 GAMMAs            1.2726   1.2774
 SON VEL,M/SEC     1021.7    959.7
 MACH NUMBER        0.000    1.000

 TRANSPORT PROPERTIES (GASES ONLY)
   CONDUCTIVITY IN UNITS OF MILLIWATTS/(CM)(K)

 VISC,MILLIPOISE  0.78461  0.71743

  WITH FROZEN REACTIONS

 Cp, KJ/(KG)(K)    1.5439   1.5229
 CONDUCTIVITY      1.8654   1.6683
 PRANDTL NUMBER    0.6494   0.6549

 PERFORMANCE PARAMETERS

 Ae/At                      1.0000
 CSTAR, M/SEC               1366.6
 CF                         0.7022
 Ivac, M/SEC                1711.0
 Isp, M/SEC                  959.7

 MOLE FRACTIONS

 *Ar             0.00725   *CO             0.16634   *CO2            0.02993
 *H              0.00683   *H2             0.08723   H2O             0.09636
 *NO             0.00025   *N2             0.60402   *O              0.00008
 *OH             0.00168   *O2             0.00004

  * THERMODYNAMIC PROPERTIES FITTED TO 20000.K

    PRODUCTS WHICH WERE CONSIDERED BUT WHOSE MOLE FRACTIONS
    WERE LESS THAN 5.000000E-06 FOR ALL ASSIGNED CONDITIONS



 NOTE. WEIGHT FRACTION OF FUEL IN TOTAL FUELS AND OF OXIDANT IN TOTAL OXIDANTS






 O/F =   8.400000

                       EFFECTIVE FUEL     EFFECTIVE OXIDANT        MIXTURE
 ENTHALPY                  h(2)/R              h(1)/R               h0/R
 (KG-MOL)(K)/KG       -0.21813927E+03      0.16037597E+03      0.12010839E+03

 KG-FORM.WT./KG             bi(2)               bi(1)               b0i
  *C                   0.71722711E-01      0.11013248E-04      0.76399173E-02
  *H                   0.13746853E+00      0.00000000E+00      0.14624312E-01
  *N                   0.00000000E+00      0.53915890E-01      0.48180157E-01
  *O                   0.00000000E+00      0.14486046E-01      0.12944977E-01
  *Ar                  0.00000000E+00      0.32331996E-03      0.28892422E-03

 POINT ITN      T            C           H           N           O 
                    AR
   1    3    2506.982     -15.946     -11.369     -14.112     -19.680
                 -26.663





           THEORETICAL ROCKET PERFORMANCE ASSUMING FROZEN COMPOSITION

 Pin =    14.5 PSIA
 CASE =                

             REACTANT                    WT FRACTION      ENERGY      TEMP
                                          (SEE NOTE)     KJ/KG-MOL      K  
 FUEL        Jet-A(L)                     1.0000000   -303455.540    298.000
 OXIDANT     Air                          1.0000000     38623.465   1500.000

 O/F=    8.40000  %FUEL= 10.638298  R,EQ.RATIO= 1.745232  PHI,EQ.RATIO= 1.746367

                 CHAMBER   THROAT
 Pinf/P            1.0000   1.8181
 P, BAR            1.0000  0.55001
 T, K             2506.98  2204.87
 RHO, KG/CU M    1.2136-1 7.5894-2
 H, KJ/KG          998.64   536.28
 U, KJ/KG          174.63  -188.43
 G, KJ/KG        -25647.7 -22898.9
 S, KJ/(KG)(K)    10.6289  10.6289

 M, (1/n)          25.296   25.296
 Cp, KJ/(KG)(K)    1.5403   1.5197
 GAMMAs            1.2713   1.2760
 SON VEL,M/SEC     1023.5    961.6
 MACH NUMBER        0.000    1.000

 TRANSPORT PROPERTIES (GASES ONLY)
   CONDUCTIVITY IN UNITS OF MILLIWATTS/(CM)(K)

 VISC,MILLIPOISE  0.79174  0.72416

  WITH FROZEN REACTIONS

 Cp, KJ/(KG)(K)    1.5403   1.5197
 CONDUCTIVITY      1.8679   1.6713
 PRANDTL NUMBER    0.6529   0.6585

 PERFORMANCE PARAMETERS

 Ae/At                      1.0000
 CSTAR, M/SEC               1370.2
 CF                         0.7018
 Ivac, M/SEC                1715.3
 Isp, M/SEC                  961.6

 MOLE FRACTIONS

 *Ar             0.00731   *CO             0.16125   *CO2            0.03201
 *H              0.00738   *H2             0.08070   H2O             0.09953
 *NO             0.00034   *N2             0.60922   *O              0.00011
 *OH             0.00209   *O2             0.00006

  * THERMODYNAMIC PROPERTIES FITTED TO 20000.K

    PRODUCTS WHICH WERE CONSIDERED BUT WHOSE MOLE FRACTIONS
    WERE LESS THAN 5.000000E-06 FOR ALL ASSIGNED CONDITIONS



 NOTE. WEIGHT FRACTION OF FUEL IN TOTAL FUELS AND OF OXIDANT IN TOTAL OXIDANTS






 O/F =   8.600000

                       EFFECTIVE FUEL     EFFECTIVE OXIDANT        MIXTURE
 ENTHALPY                  h(2)/R              h(1)/R               h0/R
 (KG-MOL)(K)/KG       -0.21813927E+03      0.16037597E+03      0.12094730E+03

 KG-FORM.WT./KG             bi(2)               bi(1)               b0i
  *C                   0.71722711E-01      0.11013248E-04      0.74809818E-02
  *H                   0.13746853E+00      0.00000000E+00      0.14319639E-01
  *N                   0.00000000E+00      0.53915890E-01      0.48299651E-01
  *O                   0.00000000E+00      0.14486046E-01      0.12977083E-01
  *Ar                  0.00000000E+00      0.32331996E-03      0.28964079E-03

 POINT ITN      T            C           H           N           O 
                    AR
   1    3    2531.575     -16.167     -11.425     -14.125     -19.474
                 -26.676





           THEORETICAL ROCKET PERFORMANCE ASSUMING FROZEN COMPOSITION

 Pin =    14.5 PSIA
 CASE =                

             REACTANT                    WT FRACTION      ENERGY      TEMP
                                          (SEE NOTE)     KJ/KG-MOL      K  
 FUEL        Jet-A(L)                     1.0000000   -303455.540    298.000
 OXIDANT     Air                          1.0000000     38623.465   1500.000

 O/F=    8.60000  %FUEL= 10.416667  R,EQ.RATIO= 1.704681  PHI,EQ.RATIO= 1.705754

                 CHAMBER   THROAT
 Pinf/P            1.0000   1.8174
 P, BAR            1.0000  0.55025
 T, K             2531.58  2227.72
 RHO, KG/CU M    1.2087-1 7.5583-2
 H, KJ/KG         1005.62   541.62
 U, KJ/KG          178.31  -186.38
 G, KJ/KG        -25831.5 -23074.4
 S, KJ/(KG)(K)    10.6009  10.6009

 M, (1/n)          25.443   25.443
 Cp, KJ/(KG)(K)    1.5368   1.5165
 GAMMAs            1.2701   1.2747
 SON VEL,M/SEC     1025.1    963.3
 MACH NUMBER        0.000    1.000

 TRANSPORT PROPERTIES (GASES ONLY)
   CONDUCTIVITY IN UNITS OF MILLIWATTS/(CM)(K)

 VISC,MILLIPOISE  0.79843  0.73049

  WITH FROZEN REACTIONS

 Cp, KJ/(KG)(K)    1.5368   1.5165
 CONDUCTIVITY      1.8700   1.6739
 PRANDTL NUMBER    0.6561   0.6618

 PERFORMANCE PARAMETERS

 Ae/At                      1.0000
 CSTAR, M/SEC               1373.4
 CF                         0.7014
 Ivac, M/SEC                1719.0
 Isp, M/SEC                  963.3

 MOLE FRACTIONS

 *Ar             0.00737   *CO             0.15621   *CO2            0.03413
 *H              0.00789   *H2             0.07458   H2O             0.10236
 *NO             0.00044   *N2             0.61421   *O              0.00016
 *OH             0.00256   *O2             0.00009

  * THERMODYNAMIC PROPERTIES FITTED TO 20000.K

    PRODUCTS WHICH WERE CONSIDERED BUT WHOSE MOLE FRACTIONS
    WERE LESS THAN 5.000000E-06 FOR ALL ASSIGNED CONDITIONS



 NOTE. WEIGHT FRACTION OF FUEL IN TOTAL FUELS AND OF OXIDANT IN TOTAL OXIDANTS






 O/F =   8.800000

                       EFFECTIVE FUEL     EFFECTIVE OXIDANT        MIXTURE
 ENTHALPY                  h(2)/R              h(1)/R               h0/R
 (KG-MOL)(K)/KG       -0.21813927E+03      0.16037597E+03      0.12175197E+03

 KG-FORM.WT./KG             bi(2)               bi(1)               b0i
  *C                   0.71722711E-01      0.11013248E-04      0.73285335E-02
  *H                   0.13746853E+00      0.00000000E+00      0.14027401E-01
  *N                   0.00000000E+00      0.53915890E-01      0.48414268E-01
  *O                   0.00000000E+00      0.14486046E-01      0.13007878E-01
  *Ar                  0.00000000E+00      0.32331996E-03      0.29032812E-03

 POINT ITN      T            C           H           N           O 
                    AR
   1    3    2554.407     -16.379     -11.480     -14.137     -19.280
                 -26.688





           THEORETICAL ROCKET PERFORMANCE ASSUMING FROZEN COMPOSITION

 Pin =    14.5 PSIA
 CASE =                

             REACTANT                    WT FRACTION      ENERGY      TEMP
                                          (SEE NOTE)     KJ/KG-MOL      K  
 FUEL        Jet-A(L)                     1.0000000   -303455.540    298.000
 OXIDANT     Air                          1.0000000     38623.465   1500.000

 O/F=    8.80000  %FUEL= 10.204082  R,EQ.RATIO= 1.665973  PHI,EQ.RATIO= 1.666987

                 CHAMBER   THROAT
 Pinf/P            1.0000   1.8166
 P, BAR            1.0000  0.55047
 T, K             2554.41  2248.97
 RHO, KG/CU M    1.2046-1 7.5313-2
 H, KJ/KG         1012.31   546.90
 U, KJ/KG          182.13  -184.01
 G, KJ/KG        -25997.2 -23233.0
 S, KJ/(KG)(K)    10.5737  10.5737

 M, (1/n)          25.583   25.583
 Cp, KJ/(KG)(K)    1.5333   1.5133
 GAMMAs            1.2690   1.2735
 SON VEL,M/SEC     1026.4    964.8
 MACH NUMBER        0.000    1.000

 TRANSPORT PROPERTIES (GASES ONLY)
   CONDUCTIVITY IN UNITS OF MILLIWATTS/(CM)(K)

 VISC,MILLIPOISE  0.80467  0.73640

  WITH FROZEN REACTIONS

 Cp, KJ/(KG)(K)    1.5333   1.5133
 CONDUCTIVITY      1.8715   1.6760
 PRANDTL NUMBER    0.6592   0.6649

 PERFORMANCE PARAMETERS

 Ae/At                      1.0000
 CSTAR, M/SEC               1376.3
 CF                         0.7010
 Ivac, M/SEC                1722.4
 Isp, M/SEC                  964.8

 MOLE FRACTIONS

 *Ar             0.00743   *CO             0.15120   *CO2            0.03629
 *H              0.00835   *H2             0.06886   H2O             0.10486
 *NO             0.00057   *N2             0.61901   *O              0.00022
 *OH             0.00308   *O2             0.00014

  * THERMODYNAMIC PROPERTIES FITTED TO 20000.K

    PRODUCTS WHICH WERE CONSIDERED BUT WHOSE MOLE FRACTIONS
    WERE LESS THAN 5.000000E-06 FOR ALL ASSIGNED CONDITIONS



 NOTE. WEIGHT FRACTION OF FUEL IN TOTAL FUELS AND OF OXIDANT IN TOTAL OXIDANTS






 O/F =   9.000000

                       EFFECTIVE FUEL     EFFECTIVE OXIDANT        MIXTURE
 ENTHALPY                  h(2)/R              h(1)/R               h0/R
 (KG-MOL)(K)/KG       -0.21813927E+03      0.16037597E+03      0.12252445E+03

 KG-FORM.WT./KG             bi(2)               bi(1)               b0i
  *C                   0.71722711E-01      0.11013248E-04      0.71821831E-02
  *H                   0.13746853E+00      0.00000000E+00      0.13746853E-01
  *N                   0.00000000E+00      0.53915890E-01      0.48524301E-01
  *O                   0.00000000E+00      0.14486046E-01      0.13037441E-01
  *Ar                  0.00000000E+00      0.32331996E-03      0.29098796E-03

 POINT ITN      T            C           H           N           O 
                    AR
   1    3    2575.489     -16.582     -11.534     -14.148     -19.098
                 -26.699





           THEORETICAL ROCKET PERFORMANCE ASSUMING FROZEN COMPOSITION

 Pin =    14.5 PSIA
 CASE =                

             REACTANT                    WT FRACTION      ENERGY      TEMP
                                          (SEE NOTE)     KJ/KG-MOL      K  
 FUEL        Jet-A(L)                     1.0000000   -303455.540    298.000
 OXIDANT     Air                          1.0000000     38623.465   1500.000

 O/F=    9.00000  %FUEL= 10.000000  R,EQ.RATIO= 1.628985  PHI,EQ.RATIO= 1.629943

                 CHAMBER   THROAT
 Pinf/P            1.0000   1.8159
 P, BAR            1.0000  0.55068
 T, K             2575.49  2268.61
 RHO, KG/CU M    1.2010-1 7.5082-2
 H, KJ/KG         1018.73   552.13
 U, KJ/KG          186.08  -181.31
 G, KJ/KG        -26145.2 -23375.1
 S, KJ/(KG)(K)    10.5471  10.5471

 M, (1/n)          25.718   25.718
 Cp, KJ/(KG)(K)    1.5299   1.5103
 GAMMAs            1.2679   1.2724
 SON VEL,M/SEC     1027.5    966.0
 MACH NUMBER        0.000    1.000

 TRANSPORT PROPERTIES (GASES ONLY)
   CONDUCTIVITY IN UNITS OF MILLIWATTS/(CM)(K)

 VISC,MILLIPOISE  0.81048  0.74190

  WITH FROZEN REACTIONS

 Cp, KJ/(KG)(K)    1.5299   1.5103
 CONDUCTIVITY      1.8726   1.6777
 PRANDTL NUMBER    0.6621   0.6679

 PERFORMANCE PARAMETERS

 Ae/At                      1.0000
 CSTAR, M/SEC               1378.7
 CF                         0.7007
 Ivac, M/SEC                1725.3
 Isp, M/SEC                  966.0

 MOLE FRACTIONS

 *Ar             0.00748   *CO             0.14623   *CO2            0.03848
 *H              0.00876   *H2             0.06354   H2O             0.10702
 *NO             0.00072   *N2             0.62360   *O              0.00030
 *OH             0.00365   *O2             0.00020

  * THERMODYNAMIC PROPERTIES FITTED TO 20000.K

    PRODUCTS WHICH WERE CONSIDERED BUT WHOSE MOLE FRACTIONS
    WERE LESS THAN 5.000000E-06 FOR ALL ASSIGNED CONDITIONS



 NOTE. WEIGHT FRACTION OF FUEL IN TOTAL FUELS AND OF OXIDANT IN TOTAL OXIDANTS



